<?xml version="1.0" encoding="UTF-8"?>
<routes xmlns:xsi="http://www.w3.org/2001/XMLSchema-instance" xsi:noNamespaceSchemaLocation="http://sumo.dlr.de/xsd/routes_file.xsd">
  <flow id="JF70514" begin="0" fromJunction="J3" toJunction="J0" end="60" vehsPerHour="522.5371079715818"/>
  <flow id="JF70515" begin="0" fromJunction="J0" toJunction="J3" end="60" vehsPerHour="309.8329634032018"/>
  <flow id="JF70516" begin="0" fromJunction="J3" toJunction="J4" end="60" vehsPerHour="36.467881564175165"/>
  <flow id="JF70517" begin="0" fromJunction="J3" toJunction="J2" end="60" vehsPerHour="22.486674470410907"/>
  <flow id="JF70518" begin="0" fromJunction="J0" toJunction="J4" end="60" vehsPerHour="50.33035296485551"/>
  <flow id="JF70519" begin="0" fromJunction="J0" toJunction="J2" end="60" vehsPerHour="115.00212257082451"/>
  <flow id="JF70520" begin="0" fromJunction="J4" toJunction="J2" end="60" vehsPerHour="137.27554853336048"/>
  <flow id="JF70521" begin="0" fromJunction="J2" toJunction="J4" end="60" vehsPerHour="86.4559031003486"/>
  <flow id="JF70522" begin="0" fromJunction="J4" toJunction="J3" end="60" vehsPerHour="74.29116805530305"/>
  <flow id="JF70523" begin="0" fromJunction="J4" toJunction="J0" end="60" vehsPerHour="35.382967049111556"/>
  <flow id="JF70524" begin="0" fromJunction="J2" toJunction="J3" end="60" vehsPerHour="135.66252468592714"/>
  <flow id="JF70525" begin="0" fromJunction="J2" toJunction="J0" end="60" vehsPerHour="117.7873329534695"/>
  <flow id="JF70526" begin="60" fromJunction="J3" toJunction="J0" end="120" vehsPerHour="426.78259865089785"/>
  <flow id="JF70527" begin="60" fromJunction="J0" toJunction="J3" end="120" vehsPerHour="446.62052030634777"/>
  <flow id="JF70528" begin="60" fromJunction="J3" toJunction="J4" end="120" vehsPerHour="89.70126277342155"/>
  <flow id="JF70529" begin="60" fromJunction="J3" toJunction="J2" end="120" vehsPerHour="93.04017678659959"/>
  <flow id="JF70530" begin="60" fromJunction="J0" toJunction="J4" end="120" vehsPerHour="74.31294191466377"/>
  <flow id="JF70531" begin="60" fromJunction="J0" toJunction="J2" end="120" vehsPerHour="41.746443288642226"/>
  <flow id="JF70532" begin="60" fromJunction="J4" toJunction="J2" end="120" vehsPerHour="1.802672320079069"/>
  <flow id="JF70533" begin="60" fromJunction="J2" toJunction="J4" end="120" vehsPerHour="77.31855157357623"/>
  <flow id="JF70534" begin="60" fromJunction="J4" toJunction="J3" end="120" vehsPerHour="18.021477325761172"/>
  <flow id="JF70535" begin="60" fromJunction="J4" toJunction="J0" end="120" vehsPerHour="53.72605284460098"/>
  <flow id="JF70536" begin="60" fromJunction="J2" toJunction="J3" end="120" vehsPerHour="84.07778143254325"/>
  <flow id="JF70537" begin="60" fromJunction="J2" toJunction="J0" end="120" vehsPerHour="64.55988001257832"/>
  <flow id="JF70538" begin="120" fromJunction="J3" toJunction="J0" end="180" vehsPerHour="332.14910395789394"/>
  <flow id="JF70539" begin="120" fromJunction="J0" toJunction="J3" end="180" vehsPerHour="136.38706124632108"/>
  <flow id="JF70540" begin="120" fromJunction="J3" toJunction="J4" end="180" vehsPerHour="124.07331989470879"/>
  <flow id="JF70541" begin="120" fromJunction="J3" toJunction="J2" end="180" vehsPerHour="97.0089091863224"/>
  <flow id="JF70542" begin="120" fromJunction="J0" toJunction="J4" end="180" vehsPerHour="136.4569349698646"/>
  <flow id="JF70543" begin="120" fromJunction="J0" toJunction="J2" end="180" vehsPerHour="82.15321859506064"/>
  <flow id="JF70544" begin="120" fromJunction="J4" toJunction="J2" end="180" vehsPerHour="97.91237195828795"/>
  <flow id="JF70545" begin="120" fromJunction="J2" toJunction="J4" end="180" vehsPerHour="74.31184184456768"/>
  <flow id="JF70546" begin="120" fromJunction="J4" toJunction="J3" end="180" vehsPerHour="130.1847167607201"/>
  <flow id="JF70547" begin="120" fromJunction="J4" toJunction="J0" end="180" vehsPerHour="102.98106792341552"/>
  <flow id="JF70548" begin="120" fromJunction="J2" toJunction="J3" end="180" vehsPerHour="2.229610442482257"/>
  <flow id="JF70549" begin="120" fromJunction="J2" toJunction="J0" end="180" vehsPerHour="125.62806140732982"/>
  <flow id="JF70550" begin="180" fromJunction="J3" toJunction="J0" end="240" vehsPerHour="496.8413887965506"/>
  <flow id="JF70551" begin="180" fromJunction="J0" toJunction="J3" end="240" vehsPerHour="84.186023959751"/>
  <flow id="JF70552" begin="180" fromJunction="J3" toJunction="J4" end="240" vehsPerHour="25.248817904998965"/>
  <flow id="JF70553" begin="180" fromJunction="J3" toJunction="J2" end="240" vehsPerHour="70.31221828318591"/>
  <flow id="JF70554" begin="180" fromJunction="J0" toJunction="J4" end="240" vehsPerHour="36.63069754583758"/>
  <flow id="JF70555" begin="180" fromJunction="J0" toJunction="J2" end="240" vehsPerHour="22.490922268324645"/>
  <flow id="JF70556" begin="240" fromJunction="J3" toJunction="J0" end="300" vehsPerHour="442.3173325823541"/>
  <flow id="JF70557" begin="240" fromJunction="J0" toJunction="J3" end="300" vehsPerHour="89.82488728702114"/>
  <flow id="JF70558" begin="240" fromJunction="J3" toJunction="J4" end="300" vehsPerHour="3.9817981425638673"/>
  <flow id="JF70559" begin="240" fromJunction="J3" toJunction="J2" end="300" vehsPerHour="50.275301878628014"/>
  <flow id="JF70560" begin="240" fromJunction="J0" toJunction="J4" end="300" vehsPerHour="44.184566724535635"/>
  <flow id="JF70561" begin="240" fromJunction="J0" toJunction="J2" end="300" vehsPerHour="80.96257547347955"/>
  <flow id="JF70562" begin="240" fromJunction="J4" toJunction="J2" end="300" vehsPerHour="119.94464002954398"/>
  <flow id="JF70563" begin="240" fromJunction="J2" toJunction="J4" end="300" vehsPerHour="100.36424934615985"/>
  <flow id="JF70564" begin="240" fromJunction="J4" toJunction="J3" end="300" vehsPerHour="128.89256085684497"/>
  <flow id="JF70565" begin="240" fromJunction="J4" toJunction="J0" end="300" vehsPerHour="97.97212644123135"/>
  <flow id="JF70566" begin="240" fromJunction="J2" toJunction="J3" end="300" vehsPerHour="24.454531860326295"/>
  <flow id="JF70567" begin="240" fromJunction="J2" toJunction="J0" end="300" vehsPerHour="49.979037246265506"/>
  <flow id="JF70568" begin="300" fromJunction="J3" toJunction="J0" end="360" vehsPerHour="89.12355802549317"/>
  <flow id="JF70569" begin="300" fromJunction="J0" toJunction="J3" end="360" vehsPerHour="430.36874948938106"/>
  <flow id="JF70570" begin="300" fromJunction="J3" toJunction="J4" end="360" vehsPerHour="90.26884345751688"/>
  <flow id="JF70571" begin="300" fromJunction="J3" toJunction="J2" end="360" vehsPerHour="96.33156772802191"/>
  <flow id="JF70572" begin="300" fromJunction="J0" toJunction="J4" end="360" vehsPerHour="115.62454677951798"/>
  <flow id="JF70573" begin="300" fromJunction="J0" toJunction="J2" end="360" vehsPerHour="98.2784825069225"/>
  <flow id="JF70574" begin="300" fromJunction="J4" toJunction="J2" end="360" vehsPerHour="100.73226004813404"/>
  <flow id="JF70575" begin="300" fromJunction="J2" toJunction="J4" end="360" vehsPerHour="126.12088395514596"/>
  <flow id="JF70576" begin="300" fromJunction="J4" toJunction="J3" end="360" vehsPerHour="95.55490159039954"/>
  <flow id="JF70577" begin="300" fromJunction="J4" toJunction="J0" end="360" vehsPerHour="61.709069205695435"/>
  <flow id="JF70578" begin="300" fromJunction="J2" toJunction="J3" end="360" vehsPerHour="120.40630967048591"/>
  <flow id="JF70579" begin="300" fromJunction="J2" toJunction="J0" end="360" vehsPerHour="65.15011948764396"/>
  <flow id="JF70580" begin="360" fromJunction="J3" toJunction="J0" end="420" vehsPerHour="135.53858627505235"/>
  <flow id="JF70581" begin="360" fromJunction="J0" toJunction="J3" end="420" vehsPerHour="502.38697420991997"/>
  <flow id="JF70582" begin="360" fromJunction="J3" toJunction="J4" end="420" vehsPerHour="136.8435112477968"/>
  <flow id="JF70583" begin="360" fromJunction="J3" toJunction="J2" end="420" vehsPerHour="120.79277345107752"/>
  <flow id="JF70584" begin="360" fromJunction="J0" toJunction="J4" end="420" vehsPerHour="98.53012283849617"/>
  <flow id="JF70585" begin="360" fromJunction="J0" toJunction="J2" end="420" vehsPerHour="88.12129893611822"/>
  <flow id="JF70586" begin="360" fromJunction="J4" toJunction="J2" end="420" vehsPerHour="4.743937860134018"/>
  <flow id="JF70587" begin="360" fromJunction="J2" toJunction="J4" end="420" vehsPerHour="50.312399505269184"/>
  <flow id="JF70588" begin="360" fromJunction="J4" toJunction="J3" end="420" vehsPerHour="134.3432988927536"/>
  <flow id="JF70589" begin="360" fromJunction="J4" toJunction="J0" end="420" vehsPerHour="135.8712823497149"/>
  <flow id="JF70590" begin="360" fromJunction="J2" toJunction="J3" end="420" vehsPerHour="18.735349545981393"/>
  <flow id="JF70591" begin="360" fromJunction="J2" toJunction="J0" end="420" vehsPerHour="14.501980055698661"/>
  <flow id="JF70592" begin="420" fromJunction="J3" toJunction="J0" end="480" vehsPerHour="415.6709909677073"/>
  <flow id="JF70593" begin="420" fromJunction="J0" toJunction="J3" end="480" vehsPerHour="417.45762934363023"/>
  <flow id="JF70594" begin="420" fromJunction="J3" toJunction="J4" end="480" vehsPerHour="61.313859640559315"/>
  <flow id="JF70595" begin="420" fromJunction="J3" toJunction="J2" end="480" vehsPerHour="74.79508365845925"/>
  <flow id="JF70596" begin="420" fromJunction="J0" toJunction="J4" end="480" vehsPerHour="3.9086476611683287"/>
  <flow id="JF70597" begin="420" fromJunction="J0" toJunction="J2" end="480" vehsPerHour="37.05028567548015"/>
  <flow id="JF70598" begin="420" fromJunction="J4" toJunction="J2" end="480" vehsPerHour="60.38219302990684"/>
  <flow id="JF70599" begin="420" fromJunction="J2" toJunction="J4" end="480" vehsPerHour="123.56884372731227"/>
  <flow id="JF70600" begin="420" fromJunction="J4" toJunction="J3" end="480" vehsPerHour="46.073030775220275"/>
  <flow id="JF70601" begin="420" fromJunction="J4" toJunction="J0" end="480" vehsPerHour="75.13804806603424"/>
  <flow id="JF70602" begin="420" fromJunction="J2" toJunction="J3" end="480" vehsPerHour="124.92694918810426"/>
  <flow id="JF70603" begin="420" fromJunction="J2" toJunction="J0" end="480" vehsPerHour="98.71144688749358"/>
  <flow id="JF70604" begin="480" fromJunction="J3" toJunction="J0" end="540" vehsPerHour="34.50665598106776"/>
  <flow id="JF70605" begin="480" fromJunction="J0" toJunction="J3" end="540" vehsPerHour="205.71099768186386"/>
  <flow id="JF70606" begin="480" fromJunction="J3" toJunction="J4" end="540" vehsPerHour="7.980096833245006"/>
  <flow id="JF70607" begin="480" fromJunction="J3" toJunction="J2" end="540" vehsPerHour="46.42489382189797"/>
  <flow id="JF70608" begin="480" fromJunction="J0" toJunction="J4" end="540" vehsPerHour="129.37189538526172"/>
  <flow id="JF70609" begin="480" fromJunction="J0" toJunction="J2" end="540" vehsPerHour="118.34640825490183"/>
  <flow id="JF70610" begin="480" fromJunction="J4" toJunction="J2" end="540" vehsPerHour="12.588815147094115"/>
  <flow id="JF70611" begin="480" fromJunction="J2" toJunction="J4" end="540" vehsPerHour="26.720158772971654"/>
  <flow id="JF70612" begin="480" fromJunction="J4" toJunction="J3" end="540" vehsPerHour="42.805220766673216"/>
  <flow id="JF70613" begin="480" fromJunction="J4" toJunction="J0" end="540" vehsPerHour="117.83247888713466"/>
  <flow id="JF70614" begin="480" fromJunction="J2" toJunction="J3" end="540" vehsPerHour="74.93574937937751"/>
  <flow id="JF70615" begin="480" fromJunction="J2" toJunction="J0" end="540" vehsPerHour="38.00574329793558"/>
  <flow id="JF70616" begin="540" fromJunction="J3" toJunction="J0" end="600" vehsPerHour="21.66328037595157"/>
  <flow id="JF70617" begin="540" fromJunction="J0" toJunction="J3" end="600" vehsPerHour="225.92453306605415"/>
  <flow id="JF70618" begin="540" fromJunction="J3" toJunction="J4" end="600" vehsPerHour="73.09288694080556"/>
  <flow id="JF70619" begin="540" fromJunction="J3" toJunction="J2" end="600" vehsPerHour="32.77715940217712"/>
  <flow id="JF70620" begin="540" fromJunction="J0" toJunction="J4" end="600" vehsPerHour="46.297538499045814"/>
  <flow id="JF70621" begin="540" fromJunction="J0" toJunction="J2" end="600" vehsPerHour="85.81563462218239"/>
  <flow id="JF70622" begin="540" fromJunction="J4" toJunction="J2" end="600" vehsPerHour="103.31704399982448"/>
  <flow id="JF70623" begin="540" fromJunction="J2" toJunction="J4" end="600" vehsPerHour="107.29296802963073"/>
  <flow id="JF70624" begin="540" fromJunction="J4" toJunction="J3" end="600" vehsPerHour="100.4878828690131"/>
  <flow id="JF70625" begin="540" fromJunction="J4" toJunction="J0" end="600" vehsPerHour="0.36032931947803126"/>
  <flow id="JF70626" begin="540" fromJunction="J2" toJunction="J3" end="600" vehsPerHour="0.8001703516779552"/>
  <flow id="JF70627" begin="540" fromJunction="J2" toJunction="J0" end="600" vehsPerHour="37.80691627107699"/>
  <flow id="JF70628" begin="600" fromJunction="J3" toJunction="J0" end="660" vehsPerHour="164.25266632925613"/>
  <flow id="JF70629" begin="600" fromJunction="J0" toJunction="J3" end="660" vehsPerHour="516.6839056143514"/>
  <flow id="JF70630" begin="600" fromJunction="J3" toJunction="J4" end="660" vehsPerHour="14.267655568744292"/>
  <flow id="JF70631" begin="600" fromJunction="J3" toJunction="J2" end="660" vehsPerHour="67.06033480843034"/>
  <flow id="JF70632" begin="600" fromJunction="J0" toJunction="J4" end="660" vehsPerHour="13.275270650578028"/>
  <flow id="JF70633" begin="600" fromJunction="J0" toJunction="J2" end="660" vehsPerHour="102.68691971759694"/>
  <flow id="JF70634" begin="600" fromJunction="J4" toJunction="J2" end="660" vehsPerHour="88.56563578918427"/>
  <flow id="JF70635" begin="600" fromJunction="J2" toJunction="J4" end="660" vehsPerHour="43.14190368768561"/>
  <flow id="JF70636" begin="600" fromJunction="J4" toJunction="J3" end="660" vehsPerHour="22.265592035555535"/>
  <flow id="JF70637" begin="600" fromJunction="J4" toJunction="J0" end="660" vehsPerHour="22.198205828454274"/>
  <flow id="JF70638" begin="600" fromJunction="J2" toJunction="J3" end="660" vehsPerHour="83.53349278295025"/>
  <flow id="JF70639" begin="600" fromJunction="J2" toJunction="J0" end="660" vehsPerHour="9.787208248162388"/>
  <flow id="JF70640" begin="660" fromJunction="J3" toJunction="J0" end="720" vehsPerHour="317.0082075204325"/>
  <flow id="JF70641" begin="660" fromJunction="J0" toJunction="J3" end="720" vehsPerHour="412.8814186134568"/>
  <flow id="JF70642" begin="660" fromJunction="J3" toJunction="J4" end="720" vehsPerHour="89.45390960928432"/>
  <flow id="JF70643" begin="660" fromJunction="J3" toJunction="J2" end="720" vehsPerHour="94.52956462941185"/>
  <flow id="JF70644" begin="660" fromJunction="J0" toJunction="J4" end="720" vehsPerHour="19.442025938080185"/>
  <flow id="JF70645" begin="660" fromJunction="J0" toJunction="J2" end="720" vehsPerHour="3.6403917064119953"/>
  <flow id="JF70646" begin="720" fromJunction="J3" toJunction="J0" end="780" vehsPerHour="102.25988206112291"/>
  <flow id="JF70647" begin="720" fromJunction="J0" toJunction="J3" end="780" vehsPerHour="381.8169819842161"/>
  <flow id="JF70648" begin="720" fromJunction="J3" toJunction="J4" end="780" vehsPerHour="25.02464280650754"/>
  <flow id="JF70649" begin="720" fromJunction="J3" toJunction="J2" end="780" vehsPerHour="13.405184911437834"/>
  <flow id="JF70650" begin="720" fromJunction="J0" toJunction="J4" end="780" vehsPerHour="62.15845869458992"/>
  <flow id="JF70651" begin="720" fromJunction="J0" toJunction="J2" end="780" vehsPerHour="17.27680420393775"/>
  <flow id="JF70652" begin="720" fromJunction="J4" toJunction="J2" end="780" vehsPerHour="82.3333863499918"/>
  <flow id="JF70653" begin="720" fromJunction="J2" toJunction="J4" end="780" vehsPerHour="70.40231661100448"/>
  <flow id="JF70654" begin="720" fromJunction="J4" toJunction="J3" end="780" vehsPerHour="97.15336100285296"/>
  <flow id="JF70655" begin="720" fromJunction="J4" toJunction="J0" end="780" vehsPerHour="0.7870871938624711"/>
  <flow id="JF70656" begin="720" fromJunction="J2" toJunction="J3" end="780" vehsPerHour="79.37776707975367"/>
  <flow id="JF70657" begin="720" fromJunction="J2" toJunction="J0" end="780" vehsPerHour="127.72183387600192"/>
  <flow id="JF70658" begin="780" fromJunction="J3" toJunction="J0" end="840" vehsPerHour="541.9466150855609"/>
  <flow id="JF70659" begin="780" fromJunction="J0" toJunction="J3" end="840" vehsPerHour="99.8472233010121"/>
  <flow id="JF70660" begin="780" fromJunction="J3" toJunction="J4" end="840" vehsPerHour="46.790135046329596"/>
  <flow id="JF70661" begin="780" fromJunction="J3" toJunction="J2" end="840" vehsPerHour="127.366793811281"/>
  <flow id="JF70662" begin="780" fromJunction="J0" toJunction="J4" end="840" vehsPerHour="36.1563879574275"/>
  <flow id="JF70663" begin="780" fromJunction="J0" toJunction="J2" end="840" vehsPerHour="101.49973841428532"/>
  <flow id="JF70664" begin="780" fromJunction="J4" toJunction="J2" end="840" vehsPerHour="83.43015845575684"/>
  <flow id="JF70665" begin="780" fromJunction="J2" toJunction="J4" end="840" vehsPerHour="51.38671340587264"/>
  <flow id="JF70666" begin="780" fromJunction="J4" toJunction="J3" end="840" vehsPerHour="87.90044563049237"/>
  <flow id="JF70667" begin="780" fromJunction="J4" toJunction="J0" end="840" vehsPerHour="128.7397009590218"/>
  <flow id="JF70668" begin="780" fromJunction="J2" toJunction="J3" end="840" vehsPerHour="7.242985081216102"/>
  <flow id="JF70669" begin="780" fromJunction="J2" toJunction="J0" end="840" vehsPerHour="47.51261420672991"/>
  <flow id="JF70670" begin="840" fromJunction="J3" toJunction="J0" end="900" vehsPerHour="147.9498459195318"/>
  <flow id="JF70671" begin="840" fromJunction="J0" toJunction="J3" end="900" vehsPerHour="37.24781223289694"/>
  <flow id="JF70672" begin="840" fromJunction="J3" toJunction="J4" end="900" vehsPerHour="46.45928097943762"/>
  <flow id="JF70673" begin="840" fromJunction="J3" toJunction="J2" end="900" vehsPerHour="111.92881725482374"/>
  <flow id="JF70674" begin="840" fromJunction="J0" toJunction="J4" end="900" vehsPerHour="29.79422812606207"/>
  <flow id="JF70675" begin="840" fromJunction="J0" toJunction="J2" end="900" vehsPerHour="69.96660229347518"/>
  <flow id="JF70676" begin="840" fromJunction="J4" toJunction="J2" end="900" vehsPerHour="95.71977539263182"/>
  <flow id="JF70677" begin="840" fromJunction="J2" toJunction="J4" end="900" vehsPerHour="123.67600223736909"/>
  <flow id="JF70678" begin="840" fromJunction="J4" toJunction="J3" end="900" vehsPerHour="103.863741092807"/>
  <flow id="JF70679" begin="840" fromJunction="J4" toJunction="J0" end="900" vehsPerHour="102.95549883502798"/>
  <flow id="JF70680" begin="840" fromJunction="J2" toJunction="J3" end="900" vehsPerHour="15.499044351398073"/>
  <flow id="JF70681" begin="840" fromJunction="J2" toJunction="J0" end="900" vehsPerHour="117.76220832764632"/>
  <flow id="JF70682" begin="900" fromJunction="J3" toJunction="J0" end="960" vehsPerHour="50.357992937539755"/>
  <flow id="JF70683" begin="900" fromJunction="J0" toJunction="J3" end="960" vehsPerHour="61.20691604911301"/>
  <flow id="JF70684" begin="900" fromJunction="J3" toJunction="J4" end="960" vehsPerHour="50.38494024027441"/>
  <flow id="JF70685" begin="900" fromJunction="J3" toJunction="J2" end="960" vehsPerHour="72.99923081081117"/>
  <flow id="JF70686" begin="900" fromJunction="J0" toJunction="J4" end="960" vehsPerHour="100.63648000460401"/>
  <flow id="JF70687" begin="900" fromJunction="J0" toJunction="J2" end="960" vehsPerHour="117.43059639251322"/>
  <flow id="JF70688" begin="900" fromJunction="J4" toJunction="J2" end="960" vehsPerHour="9.050131553644333"/>
  <flow id="JF70689" begin="900" fromJunction="J2" toJunction="J4" end="960" vehsPerHour="5.396253136741533"/>
  <flow id="JF70690" begin="900" fromJunction="J4" toJunction="J3" end="960" vehsPerHour="39.244531924405486"/>
  <flow id="JF70691" begin="900" fromJunction="J4" toJunction="J0" end="960" vehsPerHour="87.32912948782648"/>
  <flow id="JF70692" begin="900" fromJunction="J2" toJunction="J3" end="960" vehsPerHour="62.882288013035634"/>
  <flow id="JF70693" begin="900" fromJunction="J2" toJunction="J0" end="960" vehsPerHour="80.9312171122199"/>
  <flow id="JF70694" begin="960" fromJunction="J3" toJunction="J0" end="1020" vehsPerHour="380.163315989612"/>
  <flow id="JF70695" begin="960" fromJunction="J0" toJunction="J3" end="1020" vehsPerHour="470.87539599115007"/>
  <flow id="JF70696" begin="960" fromJunction="J3" toJunction="J4" end="1020" vehsPerHour="85.31456322000228"/>
  <flow id="JF70697" begin="960" fromJunction="J3" toJunction="J2" end="1020" vehsPerHour="15.66132451850551"/>
  <flow id="JF70698" begin="960" fromJunction="J0" toJunction="J4" end="1020" vehsPerHour="13.356921256036141"/>
  <flow id="JF70699" begin="960" fromJunction="J0" toJunction="J2" end="1020" vehsPerHour="100.33925837317919"/>
  <flow id="JF70700" begin="960" fromJunction="J4" toJunction="J2" end="1020" vehsPerHour="81.81188701428657"/>
  <flow id="JF70701" begin="960" fromJunction="J2" toJunction="J4" end="1020" vehsPerHour="27.006788172868685"/>
  <flow id="JF70702" begin="960" fromJunction="J4" toJunction="J3" end="1020" vehsPerHour="109.03163137010331"/>
  <flow id="JF70703" begin="960" fromJunction="J4" toJunction="J0" end="1020" vehsPerHour="93.4332649076379"/>
  <flow id="JF70704" begin="960" fromJunction="J2" toJunction="J3" end="1020" vehsPerHour="78.54421469682694"/>
  <flow id="JF70705" begin="960" fromJunction="J2" toJunction="J0" end="1020" vehsPerHour="121.42228156757027"/>
  <flow id="JF70706" begin="1020" fromJunction="J3" toJunction="J0" end="1080" vehsPerHour="504.4491876379372"/>
  <flow id="JF70707" begin="1020" fromJunction="J0" toJunction="J3" end="1080" vehsPerHour="141.6296754626363"/>
  <flow id="JF70708" begin="1020" fromJunction="J3" toJunction="J4" end="1080" vehsPerHour="71.7306206319356"/>
  <flow id="JF70709" begin="1020" fromJunction="J3" toJunction="J2" end="1080" vehsPerHour="95.9475128147366"/>
  <flow id="JF70710" begin="1020" fromJunction="J0" toJunction="J4" end="1080" vehsPerHour="8.5035275352322"/>
  <flow id="JF70711" begin="1020" fromJunction="J0" toJunction="J2" end="1080" vehsPerHour="21.159740826715776"/>
  <flow id="JF70712" begin="1020" fromJunction="J4" toJunction="J2" end="1080" vehsPerHour="41.33708931454539"/>
  <flow id="JF70713" begin="1020" fromJunction="J2" toJunction="J4" end="1080" vehsPerHour="28.55674445820166"/>
  <flow id="JF70714" begin="1020" fromJunction="J4" toJunction="J3" end="1080" vehsPerHour="133.97930571589728"/>
  <flow id="JF70715" begin="1020" fromJunction="J4" toJunction="J0" end="1080" vehsPerHour="112.56235304754198"/>
  <flow id="JF70716" begin="1020" fromJunction="J2" toJunction="J3" end="1080" vehsPerHour="87.2283214515845"/>
  <flow id="JF70717" begin="1020" fromJunction="J2" toJunction="J0" end="1080" vehsPerHour="1.4276772096633343"/>
  <flow id="JF70718" begin="1080" fromJunction="J3" toJunction="J0" end="1140" vehsPerHour="330.30061143715216"/>
  <flow id="JF70719" begin="1080" fromJunction="J0" toJunction="J3" end="1140" vehsPerHour="340.1723192269847"/>
  <flow id="JF70720" begin="1080" fromJunction="J3" toJunction="J4" end="1140" vehsPerHour="17.415635297295132"/>
  <flow id="JF70721" begin="1080" fromJunction="J3" toJunction="J2" end="1140" vehsPerHour="34.87159759506275"/>
  <flow id="JF70722" begin="1080" fromJunction="J0" toJunction="J4" end="1140" vehsPerHour="6.93724694407428"/>
  <flow id="JF70723" begin="1080" fromJunction="J0" toJunction="J2" end="1140" vehsPerHour="136.7791264830142"/>
  <flow id="JF70724" begin="1080" fromJunction="J4" toJunction="J2" end="1140" vehsPerHour="25.068175590319743"/>
  <flow id="JF70725" begin="1080" fromJunction="J2" toJunction="J4" end="1140" vehsPerHour="26.721149450756588"/>
  <flow id="JF70726" begin="1080" fromJunction="J4" toJunction="J3" end="1140" vehsPerHour="97.06843632832614"/>
  <flow id="JF70727" begin="1080" fromJunction="J4" toJunction="J0" end="1140" vehsPerHour="66.43611445211968"/>
  <flow id="JF70728" begin="1080" fromJunction="J2" toJunction="J3" end="1140" vehsPerHour="94.29086865589869"/>
  <flow id="JF70729" begin="1080" fromJunction="J2" toJunction="J0" end="1140" vehsPerHour="75.77244444472865"/>
  <flow id="JF70730" begin="1140" fromJunction="J3" toJunction="J0" end="1200" vehsPerHour="207.1196021639575"/>
  <flow id="JF70731" begin="1140" fromJunction="J0" toJunction="J3" end="1200" vehsPerHour="279.37528197149635"/>
  <flow id="JF70732" begin="1140" fromJunction="J3" toJunction="J4" end="1200" vehsPerHour="132.2854146529723"/>
  <flow id="JF70733" begin="1140" fromJunction="J3" toJunction="J2" end="1200" vehsPerHour="30.951635677226328"/>
  <flow id="JF70734" begin="1140" fromJunction="J0" toJunction="J4" end="1200" vehsPerHour="87.53951279938612"/>
  <flow id="JF70735" begin="1140" fromJunction="J0" toJunction="J2" end="1200" vehsPerHour="41.625459340341294"/>
  <flow id="JF70736" begin="1140" fromJunction="J4" toJunction="J2" end="1200" vehsPerHour="5.215231268055439"/>
  <flow id="JF70737" begin="1140" fromJunction="J2" toJunction="J4" end="1200" vehsPerHour="112.39927212875034"/>
  <flow id="JF70738" begin="1140" fromJunction="J4" toJunction="J3" end="1200" vehsPerHour="83.46167216064"/>
  <flow id="JF70739" begin="1140" fromJunction="J4" toJunction="J0" end="1200" vehsPerHour="133.19201604299653"/>
  <flow id="JF70740" begin="1140" fromJunction="J2" toJunction="J3" end="1200" vehsPerHour="67.62384817620358"/>
  <flow id="JF70741" begin="1140" fromJunction="J2" toJunction="J0" end="1200" vehsPerHour="28.79199440886926"/>
  <flow id="JF70742" begin="1200" fromJunction="J3" toJunction="J0" end="1260" vehsPerHour="48.65403183592204"/>
  <flow id="JF70743" begin="1200" fromJunction="J0" toJunction="J3" end="1260" vehsPerHour="105.16793533596476"/>
  <flow id="JF70744" begin="1200" fromJunction="J3" toJunction="J4" end="1260" vehsPerHour="134.6709697752404"/>
  <flow id="JF70745" begin="1200" fromJunction="J3" toJunction="J2" end="1260" vehsPerHour="99.20961556557862"/>
  <flow id="JF70746" begin="1200" fromJunction="J0" toJunction="J4" end="1260" vehsPerHour="71.46802016156016"/>
  <flow id="JF70747" begin="1200" fromJunction="J0" toJunction="J2" end="1260" vehsPerHour="38.34390193224813"/>
  <flow id="JF70748" begin="1260" fromJunction="J3" toJunction="J0" end="1320" vehsPerHour="295.09774570718577"/>
  <flow id="JF70749" begin="1260" fromJunction="J0" toJunction="J3" end="1320" vehsPerHour="227.28876918980797"/>
  <flow id="JF70750" begin="1260" fromJunction="J3" toJunction="J4" end="1320" vehsPerHour="62.977105537116344"/>
  <flow id="JF70751" begin="1260" fromJunction="J3" toJunction="J2" end="1320" vehsPerHour="8.083212587346368"/>
  <flow id="JF70752" begin="1260" fromJunction="J0" toJunction="J4" end="1320" vehsPerHour="90.3277569947671"/>
  <flow id="JF70753" begin="1260" fromJunction="J0" toJunction="J2" end="1320" vehsPerHour="49.5741181030359"/>
  <flow id="JF70754" begin="1260" fromJunction="J4" toJunction="J2" end="1320" vehsPerHour="115.87326312545872"/>
  <flow id="JF70755" begin="1260" fromJunction="J2" toJunction="J4" end="1320" vehsPerHour="111.74802528185424"/>
  <flow id="JF70756" begin="1260" fromJunction="J4" toJunction="J3" end="1320" vehsPerHour="2.2325742498038923"/>
  <flow id="JF70757" begin="1260" fromJunction="J4" toJunction="J0" end="1320" vehsPerHour="47.9768476275972"/>
  <flow id="JF70758" begin="1260" fromJunction="J2" toJunction="J3" end="1320" vehsPerHour="27.81785215482492"/>
  <flow id="JF70759" begin="1260" fromJunction="J2" toJunction="J0" end="1320" vehsPerHour="40.69162542710856"/>
  <flow id="JF70760" begin="1320" fromJunction="J3" toJunction="J0" end="1380" vehsPerHour="311.88776861753274"/>
  <flow id="JF70761" begin="1320" fromJunction="J0" toJunction="J3" end="1380" vehsPerHour="90.48565686727603"/>
  <flow id="JF70762" begin="1320" fromJunction="J3" toJunction="J4" end="1380" vehsPerHour="52.72631658110206"/>
  <flow id="JF70763" begin="1320" fromJunction="J3" toJunction="J2" end="1380" vehsPerHour="85.58949807135618"/>
  <flow id="JF70764" begin="1320" fromJunction="J0" toJunction="J4" end="1380" vehsPerHour="77.01790081474905"/>
  <flow id="JF70765" begin="1320" fromJunction="J0" toJunction="J2" end="1380" vehsPerHour="87.99351935248359"/>
  <flow id="JF70766" begin="1320" fromJunction="J4" toJunction="J2" end="1380" vehsPerHour="4.854823642787359"/>
  <flow id="JF70767" begin="1320" fromJunction="J2" toJunction="J4" end="1380" vehsPerHour="60.29484756349417"/>
  <flow id="JF70768" begin="1320" fromJunction="J4" toJunction="J3" end="1380" vehsPerHour="28.11745750476104"/>
  <flow id="JF70769" begin="1320" fromJunction="J4" toJunction="J0" end="1380" vehsPerHour="117.01374022082284"/>
  <flow id="JF70770" begin="1320" fromJunction="J2" toJunction="J3" end="1380" vehsPerHour="109.72107489269955"/>
  <flow id="JF70771" begin="1320" fromJunction="J2" toJunction="J0" end="1380" vehsPerHour="30.90573548381757"/>
  <flow id="JF70772" begin="1380" fromJunction="J3" toJunction="J0" end="1440" vehsPerHour="22.75935891677544"/>
  <flow id="JF70773" begin="1380" fromJunction="J0" toJunction="J3" end="1440" vehsPerHour="426.34900656152206"/>
  <flow id="JF70774" begin="1380" fromJunction="J3" toJunction="J4" end="1440" vehsPerHour="91.70309755309202"/>
  <flow id="JF70775" begin="1380" fromJunction="J3" toJunction="J2" end="1440" vehsPerHour="99.19437463260122"/>
  <flow id="JF70776" begin="1380" fromJunction="J0" toJunction="J4" end="1440" vehsPerHour="45.19928860402513"/>
  <flow id="JF70777" begin="1380" fromJunction="J0" toJunction="J2" end="1440" vehsPerHour="84.93349459206259"/>
  <flow id="JF70778" begin="1440" fromJunction="J3" toJunction="J0" end="1500" vehsPerHour="411.1721581845196"/>
  <flow id="JF70779" begin="1440" fromJunction="J0" toJunction="J3" end="1500" vehsPerHour="186.67963571196705"/>