<?xml version="1.0" encoding="UTF-8"?>
<routes xmlns:xsi="http://www.w3.org/2001/XMLSchema-instance" xsi:noNamespaceSchemaLocation="http://sumo.dlr.de/xsd/routes_file.xsd">
  <flow id="JF82899" begin="0" fromJunction="J3" toJunction="J0" end="60" vehsPerHour="123.30249498618389"/>
  <flow id="JF82900" begin="0" fromJunction="J0" toJunction="J3" end="60" vehsPerHour="117.70541914042109"/>
  <flow id="JF82901" begin="0" fromJunction="J3" toJunction="J4" end="60" vehsPerHour="20.98271542810852"/>
  <flow id="JF82902" begin="0" fromJunction="J3" toJunction="J2" end="60" vehsPerHour="10.61796004887037"/>
  <flow id="JF82903" begin="0" fromJunction="J0" toJunction="J4" end="60" vehsPerHour="24.92793648104076"/>
  <flow id="JF82904" begin="0" fromJunction="J0" toJunction="J2" end="60" vehsPerHour="12.888203241924188"/>
  <flow id="JF82905" begin="60" fromJunction="J3" toJunction="J0" end="120" vehsPerHour="384.9243808815931"/>
  <flow id="JF82906" begin="60" fromJunction="J0" toJunction="J3" end="120" vehsPerHour="72.06068568691651"/>
  <flow id="JF82907" begin="60" fromJunction="J3" toJunction="J4" end="120" vehsPerHour="125.65968871240331"/>
  <flow id="JF82908" begin="60" fromJunction="J3" toJunction="J2" end="120" vehsPerHour="56.300754449690004"/>
  <flow id="JF82909" begin="60" fromJunction="J0" toJunction="J4" end="120" vehsPerHour="117.63389563419636"/>
  <flow id="JF82910" begin="60" fromJunction="J0" toJunction="J2" end="120" vehsPerHour="40.413101853252215"/>
  <flow id="JF82911" begin="60" fromJunction="J4" toJunction="J2" end="120" vehsPerHour="62.300723992224434"/>
  <flow id="JF82912" begin="60" fromJunction="J2" toJunction="J4" end="120" vehsPerHour="120.40545470280837"/>
  <flow id="JF82913" begin="60" fromJunction="J4" toJunction="J3" end="120" vehsPerHour="102.7357982807541"/>
  <flow id="JF82914" begin="60" fromJunction="J4" toJunction="J0" end="120" vehsPerHour="36.97260301901207"/>
  <flow id="JF82915" begin="60" fromJunction="J2" toJunction="J3" end="120" vehsPerHour="29.911538765127705"/>
  <flow id="JF82916" begin="60" fromJunction="J2" toJunction="J0" end="120" vehsPerHour="36.7839004956312"/>
  <flow id="JF82917" begin="120" fromJunction="J3" toJunction="J0" end="180" vehsPerHour="387.4423145216108"/>
  <flow id="JF82918" begin="120" fromJunction="J0" toJunction="J3" end="180" vehsPerHour="373.99922917439767"/>
  <flow id="JF82919" begin="120" fromJunction="J3" toJunction="J4" end="180" vehsPerHour="81.2097708837039"/>
  <flow id="JF82920" begin="120" fromJunction="J3" toJunction="J2" end="180" vehsPerHour="41.77218155817561"/>
  <flow id="JF82921" begin="120" fromJunction="J0" toJunction="J4" end="180" vehsPerHour="56.93555793443642"/>
  <flow id="JF82922" begin="120" fromJunction="J0" toJunction="J2" end="180" vehsPerHour="26.69437771276686"/>
  <flow id="JF82923" begin="180" fromJunction="J3" toJunction="J0" end="240" vehsPerHour="277.09869409606716"/>
  <flow id="JF82924" begin="180" fromJunction="J0" toJunction="J3" end="240" vehsPerHour="389.99359358016886"/>
  <flow id="JF82925" begin="180" fromJunction="J3" toJunction="J4" end="240" vehsPerHour="103.84061423955879"/>
  <flow id="JF82926" begin="180" fromJunction="J3" toJunction="J2" end="240" vehsPerHour="57.64910842006869"/>
  <flow id="JF82927" begin="180" fromJunction="J0" toJunction="J4" end="240" vehsPerHour="34.40817724943478"/>
  <flow id="JF82928" begin="180" fromJunction="J0" toJunction="J2" end="240" vehsPerHour="53.16600340676098"/>
  <flow id="JF82929" begin="180" fromJunction="J4" toJunction="J2" end="240" vehsPerHour="131.88652150240733"/>
  <flow id="JF82930" begin="180" fromJunction="J2" toJunction="J4" end="240" vehsPerHour="124.10749441178258"/>
  <flow id="JF82931" begin="180" fromJunction="J4" toJunction="J3" end="240" vehsPerHour="63.67306534589721"/>
  <flow id="JF82932" begin="180" fromJunction="J4" toJunction="J0" end="240" vehsPerHour="132.29995937865883"/>
  <flow id="JF82933" begin="180" fromJunction="J2" toJunction="J3" end="240" vehsPerHour="49.82980379489278"/>
  <flow id="JF82934" begin="180" fromJunction="J2" toJunction="J0" end="240" vehsPerHour="131.3717441332968"/>
  <flow id="JF82935" begin="240" fromJunction="J3" toJunction="J0" end="300" vehsPerHour="510.94538347235067"/>
  <flow id="JF82936" begin="240" fromJunction="J0" toJunction="J3" end="300" vehsPerHour="465.4471712449795"/>
  <flow id="JF82937" begin="240" fromJunction="J3" toJunction="J4" end="300" vehsPerHour="131.1533721656687"/>
  <flow id="JF82938" begin="240" fromJunction="J3" toJunction="J2" end="300" vehsPerHour="84.8057518839444"/>
  <flow id="JF82939" begin="240" fromJunction="J0" toJunction="J4" end="300" vehsPerHour="104.17152133455154"/>
  <flow id="JF82940" begin="240" fromJunction="J0" toJunction="J2" end="300" vehsPerHour="54.59964043374111"/>
  <flow id="JF82941" begin="240" fromJunction="J4" toJunction="J2" end="300" vehsPerHour="42.75511687519836"/>
  <flow id="JF82942" begin="240" fromJunction="J2" toJunction="J4" end="300" vehsPerHour="110.11811116180054"/>
  <flow id="JF82943" begin="240" fromJunction="J4" toJunction="J3" end="300" vehsPerHour="49.221334979922105"/>
  <flow id="JF82944" begin="240" fromJunction="J4" toJunction="J0" end="300" vehsPerHour="73.17113267920284"/>
  <flow id="JF82945" begin="240" fromJunction="J2" toJunction="J3" end="300" vehsPerHour="13.701140395741964"/>
  <flow id="JF82946" begin="240" fromJunction="J2" toJunction="J0" end="300" vehsPerHour="19.194338374609917"/>
  <flow id="JF82947" begin="300" fromJunction="J3" toJunction="J0" end="360" vehsPerHour="459.6345602575383"/>
  <flow id="JF82948" begin="300" fromJunction="J0" toJunction="J3" end="360" vehsPerHour="474.3122746546615"/>
  <flow id="JF82949" begin="300" fromJunction="J3" toJunction="J4" end="360" vehsPerHour="98.54976004119257"/>
  <flow id="JF82950" begin="300" fromJunction="J3" toJunction="J2" end="360" vehsPerHour="39.08065936152811"/>
  <flow id="JF82951" begin="300" fromJunction="J0" toJunction="J4" end="360" vehsPerHour="81.59440248217923"/>
  <flow id="JF82952" begin="300" fromJunction="J0" toJunction="J2" end="360" vehsPerHour="21.936908172901656"/>
  <flow id="JF82953" begin="300" fromJunction="J4" toJunction="J2" end="360" vehsPerHour="105.70536959401771"/>
  <flow id="JF82954" begin="300" fromJunction="J2" toJunction="J4" end="360" vehsPerHour="0.7618394485551031"/>
  <flow id="JF82955" begin="300" fromJunction="J4" toJunction="J3" end="360" vehsPerHour="91.61748555596373"/>
  <flow id="JF82956" begin="300" fromJunction="J4" toJunction="J0" end="360" vehsPerHour="110.7913825405742"/>
  <flow id="JF82957" begin="300" fromJunction="J2" toJunction="J3" end="360" vehsPerHour="3.796913533470567"/>
  <flow id="JF82958" begin="300" fromJunction="J2" toJunction="J0" end="360" vehsPerHour="58.12054664259592"/>
  <flow id="JF82959" begin="360" fromJunction="J3" toJunction="J0" end="420" vehsPerHour="246.24355102017105"/>
  <flow id="JF82960" begin="360" fromJunction="J0" toJunction="J3" end="420" vehsPerHour="529.902802228549"/>
  <flow id="JF82961" begin="360" fromJunction="J3" toJunction="J4" end="420" vehsPerHour="57.61471827659291"/>
  <flow id="JF82962" begin="360" fromJunction="J3" toJunction="J2" end="420" vehsPerHour="66.95704303203057"/>
  <flow id="JF82963" begin="360" fromJunction="J0" toJunction="J4" end="420" vehsPerHour="105.570207329973"/>
  <flow id="JF82964" begin="360" fromJunction="J0" toJunction="J2" end="420" vehsPerHour="39.87320912624184"/>
  <flow id="JF82965" begin="360" fromJunction="J4" toJunction="J2" end="420" vehsPerHour="32.320108967366856"/>
  <flow id="JF82966" begin="360" fromJunction="J2" toJunction="J4" end="420" vehsPerHour="48.29169732882164"/>
  <flow id="JF82967" begin="360" fromJunction="J4" toJunction="J3" end="420" vehsPerHour="126.65816422805014"/>
  <flow id="JF82968" begin="360" fromJunction="J4" toJunction="J0" end="420" vehsPerHour="111.23709206903324"/>
  <flow id="JF82969" begin="360" fromJunction="J2" toJunction="J3" end="420" vehsPerHour="57.8743957122307"/>
  <flow id="JF82970" begin="360" fromJunction="J2" toJunction="J0" end="420" vehsPerHour="89.6881053035119"/>
  <flow id="JF82971" begin="420" fromJunction="J3" toJunction="J0" end="480" vehsPerHour="51.83498655342415"/>
  <flow id="JF82972" begin="420" fromJunction="J0" toJunction="J3" end="480" vehsPerHour="360.69894414173564"/>
  <flow id="JF82973" begin="420" fromJunction="J3" toJunction="J4" end="480" vehsPerHour="123.42333168853922"/>
  <flow id="JF82974" begin="420" fromJunction="J3" toJunction="J2" end="480" vehsPerHour="90.70466875721613"/>
  <flow id="JF82975" begin="420" fromJunction="J0" toJunction="J4" end="480" vehsPerHour="69.1336775127884"/>
  <flow id="JF82976" begin="420" fromJunction="J0" toJunction="J2" end="480" vehsPerHour="115.09095337384798"/>
  <flow id="JF82977" begin="420" fromJunction="J4" toJunction="J2" end="480" vehsPerHour="102.54640748511797"/>
  <flow id="JF82978" begin="420" fromJunction="J2" toJunction="J4" end="480" vehsPerHour="10.483878001477551"/>
  <flow id="JF82979" begin="420" fromJunction="J4" toJunction="J3" end="480" vehsPerHour="23.3078525643393"/>
  <flow id="JF82980" begin="420" fromJunction="J4" toJunction="J0" end="480" vehsPerHour="76.51169307466591"/>
  <flow id="JF82981" begin="420" fromJunction="J2" toJunction="J3" end="480" vehsPerHour="3.3085052013386003"/>
  <flow id="JF82982" begin="420" fromJunction="J2" toJunction="J0" end="480" vehsPerHour="29.130795227309623"/>
  <flow id="JF82983" begin="480" fromJunction="J3" toJunction="J0" end="540" vehsPerHour="328.55740836473575"/>
  <flow id="JF82984" begin="480" fromJunction="J0" toJunction="J3" end="540" vehsPerHour="23.873615694994793"/>
  <flow id="JF82985" begin="480" fromJunction="J3" toJunction="J4" end="540" vehsPerHour="38.62748259504124"/>
  <flow id="JF82986" begin="480" fromJunction="J3" toJunction="J2" end="540" vehsPerHour="9.709689003271901"/>
  <flow id="JF82987" begin="480" fromJunction="J0" toJunction="J4" end="540" vehsPerHour="104.84567587684904"/>
  <flow id="JF82988" begin="480" fromJunction="J0" toJunction="J2" end="540" vehsPerHour="18.736919435022045"/>
  <flow id="JF82989" begin="480" fromJunction="J4" toJunction="J2" end="540" vehsPerHour="77.53324456734533"/>
  <flow id="JF82990" begin="480" fromJunction="J2" toJunction="J4" end="540" vehsPerHour="63.09141940545886"/>
  <flow id="JF82991" begin="480" fromJunction="J4" toJunction="J3" end="540" vehsPerHour="110.54465340827322"/>
  <flow id="JF82992" begin="480" fromJunction="J4" toJunction="J0" end="540" vehsPerHour="134.91271946145787"/>
  <flow id="JF82993" begin="480" fromJunction="J2" toJunction="J3" end="540" vehsPerHour="87.22684124593006"/>
  <flow id="JF82994" begin="480" fromJunction="J2" toJunction="J0" end="540" vehsPerHour="49.34624323452198"/>
  <flow id="JF82995" begin="540" fromJunction="J3" toJunction="J0" end="600" vehsPerHour="300.85737780017865"/>
  <flow id="JF82996" begin="540" fromJunction="J0" toJunction="J3" end="600" vehsPerHour="356.91850557877143"/>
  <flow id="JF82997" begin="540" fromJunction="J3" toJunction="J4" end="600" vehsPerHour="132.62993784714436"/>
  <flow id="JF82998" begin="540" fromJunction="J3" toJunction="J2" end="600" vehsPerHour="2.26853393921504"/>
  <flow id="JF82999" begin="540" fromJunction="J0" toJunction="J4" end="600" vehsPerHour="87.65916015438509"/>
  <flow id="JF83000" begin="540" fromJunction="J0" toJunction="J2" end="600" vehsPerHour="103.42163435939084"/>
  <flow id="JF83001" begin="540" fromJunction="J4" toJunction="J2" end="600" vehsPerHour="118.45502078825626"/>
  <flow id="JF83002" begin="540" fromJunction="J2" toJunction="J4" end="600" vehsPerHour="8.53409744662432"/>
  <flow id="JF83003" begin="540" fromJunction="J4" toJunction="J3" end="600" vehsPerHour="112.50640599612518"/>
  <flow id="JF83004" begin="540" fromJunction="J4" toJunction="J0" end="600" vehsPerHour="34.19919761049011"/>
  <flow id="JF83005" begin="540" fromJunction="J2" toJunction="J3" end="600" vehsPerHour="0.4157925465741863"/>
  <flow id="JF83006" begin="540" fromJunction="J2" toJunction="J0" end="600" vehsPerHour="94.66651831808842"/>
  <flow id="JF83007" begin="600" fromJunction="J3" toJunction="J0" end="660" vehsPerHour="521.9092050489903"/>
  <flow id="JF83008" begin="600" fromJunction="J0" toJunction="J3" end="660" vehsPerHour="82.04896167728886"/>
  <flow id="JF83009" begin="600" fromJunction="J3" toJunction="J4" end="660" vehsPerHour="0.5047588560396143"/>
  <flow id="JF83010" begin="600" fromJunction="J3" toJunction="J2" end="660" vehsPerHour="116.597455210109"/>
  <flow id="JF83011" begin="600" fromJunction="J0" toJunction="J4" end="660" vehsPerHour="87.36747484341616"/>
  <flow id="JF83012" begin="600" fromJunction="J0" toJunction="J2" end="660" vehsPerHour="82.14491565670365"/>
  <flow id="JF83013" begin="600" fromJunction="J4" toJunction="J2" end="660" vehsPerHour="103.64177923272854"/>
  <flow id="JF83014" begin="600" fromJunction="J2" toJunction="J4" end="660" vehsPerHour="124.9552500801441"/>
  <flow id="JF83015" begin="600" fromJunction="J4" toJunction="J3" end="660" vehsPerHour="109.98420944768087"/>
  <flow id="JF83016" begin="600" fromJunction="J4" toJunction="J0" end="660" vehsPerHour="132.59563348838788"/>
  <flow id="JF83017" begin="600" fromJunction="J2" toJunction="J3" end="660" vehsPerHour="76.04902686775002"/>
  <flow id="JF83018" begin="600" fromJunction="J2" toJunction="J0" end="660" vehsPerHour="85.47653259387303"/>
  <flow id="JF83019" begin="660" fromJunction="J3" toJunction="J0" end="720" vehsPerHour="202.64038623512602"/>
  <flow id="JF83020" begin="660" fromJunction="J0" toJunction="J3" end="720" vehsPerHour="424.42991486432254"/>
  <flow id="JF83021" begin="660" fromJunction="J3" toJunction="J4" end="720" vehsPerHour="85.34722749476146"/>
  <flow id="JF83022" begin="660" fromJunction="J3" toJunction="J2" end="720" vehsPerHour="17.89474416322892"/>
  <flow id="JF83023" begin="660" fromJunction="J0" toJunction="J4" end="720" vehsPerHour="125.79476424331091"/>
  <flow id="JF83024" begin="660" fromJunction="J0" toJunction="J2" end="720" vehsPerHour="44.733414604944635"/>
  <flow id="JF83025" begin="660" fromJunction="J4" toJunction="J2" end="720" vehsPerHour="32.62869397600208"/>
  <flow id="JF83026" begin="660" fromJunction="J2" toJunction="J4" end="720" vehsPerHour="83.28806693185491"/>
  <flow id="JF83027" begin="660" fromJunction="J4" toJunction="J3" end="720" vehsPerHour="115.95401225507638"/>
  <flow id="JF83028" begin="660" fromJunction="J4" toJunction="J0" end="720" vehsPerHour="99.95072786603212"/>
  <flow id="JF83029" begin="660" fromJunction="J2" toJunction="J3" end="720" vehsPerHour="103.06654132593084"/>
  <flow id="JF83030" begin="660" fromJunction="J2" toJunction="J0" end="720" vehsPerHour="92.97587417511066"/>
  <flow id="JF83031" begin="720" fromJunction="J3" toJunction="J0" end="780" vehsPerHour="373.1346381912909"/>
  <flow id="JF83032" begin="720" fromJunction="J0" toJunction="J3" end="780" vehsPerHour="286.7815118873775"/>
  <flow id="JF83033" begin="720" fromJunction="J3" toJunction="J4" end="780" vehsPerHour="43.14815831512887"/>
  <flow id="JF83034" begin="720" fromJunction="J3" toJunction="J2" end="780" vehsPerHour="93.04695779199085"/>
  <flow id="JF83035" begin="720" fromJunction="J0" toJunction="J4" end="780" vehsPerHour="133.6302344564951"/>
  <flow id="JF83036" begin="720" fromJunction="J0" toJunction="J2" end="780" vehsPerHour="78.75790863166073"/>
  <flow id="JF83037" begin="720" fromJunction="J4" toJunction="J2" end="780" vehsPerHour="9.280375265833726"/>
  <flow id="JF83038" begin="720" fromJunction="J2" toJunction="J4" end="780" vehsPerHour="95.95708008472471"/>
  <flow id="JF83039" begin="720" fromJunction="J4" toJunction="J3" end="780" vehsPerHour="130.14195387074017"/>
  <flow id="JF83040" begin="720" fromJunction="J4" toJunction="J0" end="780" vehsPerHour="15.75057394626897"/>
  <flow id="JF83041" begin="720" fromJunction="J2" toJunction="J3" end="780" vehsPerHour="56.62975156946234"/>
  <flow id="JF83042" begin="720" fromJunction="J2" toJunction="J0" end="780" vehsPerHour="2.9218694763965183"/>
  <flow id="JF83043" begin="780" fromJunction="J3" toJunction="J0" end="840" vehsPerHour="174.97179167284133"/>
  <flow id="JF83044" begin="780" fromJunction="J0" toJunction="J3" end="840" vehsPerHour="171.34948628517068"/>
  <flow id="JF83045" begin="780" fromJunction="J3" toJunction="J4" end="840" vehsPerHour="62.693800816508094"/>
  <flow id="JF83046" begin="780" fromJunction="J3" toJunction="J2" end="840" vehsPerHour="107.27662073414065"/>
  <flow id="JF83047" begin="780" fromJunction="J0" toJunction="J4" end="840" vehsPerHour="34.68808770990933"/>
  <flow id="JF83048" begin="780" fromJunction="J0" toJunction="J2" end="840" vehsPerHour="119.91362573780367"/>
  <flow id="JF83049" begin="840" fromJunction="J3" toJunction="J0" end="900" vehsPerHour="233.1514045812797"/>
  <flow id="JF83050" begin="840" fromJunction="J0" toJunction="J3" end="900" vehsPerHour="318.42859326507823"/>
  <flow id="JF83051" begin="840" fromJunction="J3" toJunction="J4" end="900" vehsPerHour="61.336790960354875"/>
  <flow id="JF83052" begin="840" fromJunction="J3" toJunction="J2" end="900" vehsPerHour="79.63208584836377"/>
  <flow id="JF83053" begin="840" fromJunction="J0" toJunction="J4" end="900" vehsPerHour="112.18491182316046"/>
  <flow id="JF83054" begin="840" fromJunction="J0" toJunction="J2" end="900" vehsPerHour="98.87392622611085"/>
  <flow id="JF83055" begin="900" fromJunction="J3" toJunction="J0" end="960" vehsPerHour="391.7752170468584"/>
  <flow id="JF83056" begin="900" fromJunction="J0" toJunction="J3" end="960" vehsPerHour="504.4219104645688"/>
  <flow id="JF83057" begin="900" fromJunction="J3" toJunction="J4" end="960" vehsPerHour="75.33227160142494"/>
  <flow id="JF83058" begin="900" fromJunction="J3" toJunction="J2" end="960" vehsPerHour="26.1374134859903"/>
  <flow id="JF83059" begin="900" fromJunction="J0" toJunction="J4" end="960" vehsPerHour="39.846149214219984"/>
  <flow id="JF83060" begin="900" fromJunction="J0" toJunction="J2" end="960" vehsPerHour="74.03674881960805"/>
  <flow id="JF83061" begin="900" fromJunction="J4" toJunction="J2" end="960" vehsPerHour="1.422402278744756"/>
  <flow id="JF83062" begin="900" fromJunction="J2" toJunction="J4" end="960" vehsPerHour="127.39473810009137"/>
  <flow id="JF83063" begin="900" fromJunction="J4" toJunction="J3" end="960" vehsPerHour="86.23869998938358"/>
  <flow id="JF83064" begin="900" fromJunction="J4" toJunction="J0" end="960" vehsPerHour="0.9487523248600463"/>
  <flow id="JF83065" begin="900" fromJunction="J2" toJunction="J3" end="960" vehsPerHour="125.64292951603879"/>
  <flow id="JF83066" begin="900" fromJunction="J2" toJunction="J0" end="960" vehsPerHour="134.85034712912082"/>
  <flow id="JF83067" begin="960" fromJunction="J3" toJunction="J0" end="1020" vehsPerHour="243.3847543967403"/>
  <flow id="JF83068" begin="960" fromJunction="J0" toJunction="J3" end="1020" vehsPerHour="189.03196069306605"/>
  <flow id="JF83069" begin="960" fromJunction="J3" toJunction="J4" end="1020" vehsPerHour="43.021837089209384"/>
  <flow id="JF83070" begin="960" fromJunction="J3" toJunction="J2" end="1020" vehsPerHour="26.371011817790677"/>
  <flow id="JF83071" begin="960" fromJunction="J0" toJunction="J4" end="1020" vehsPerHour="54.34114053996226"/>
  <flow id="JF83072" begin="960" fromJunction="J0" toJunction="J2" end="1020" vehsPerHour="101.65004941739947"/>
  <flow id="JF83073" begin="960" fromJunction="J4" toJunction="J2" end="1020" vehsPerHour="37.15397624995287"/>
  <flow id="JF83074" begin="960" fromJunction="J2" toJunction="J4" end="1020" vehsPerHour="41.20127089059411"/>
  <flow id="JF83075" begin="960" fromJunction="J4" toJunction="J3" end="1020" vehsPerHour="37.57158737545587"/>
  <flow id="JF83076" begin="960" fromJunction="J4" toJunction="J0" end="1020" vehsPerHour="130.11931889538292"/>
  <flow id="JF83077" begin="960" fromJunction="J2" toJunction="J3" end="1020" vehsPerHour="17.01906158564338"/>
  <flow id="JF83078" begin="960" fromJunction="J2" toJunction="J0" end="1020" vehsPerHour="68.51381471147494"/>
  <flow id="JF83079" begin="1020" fromJunction="J3" toJunction="J0" end="1080" vehsPerHour="94.68040840716849"/>
  <flow id="JF83080" begin="1020" fromJunction="J0" toJunction="J3" end="1080" vehsPerHour="94.99914877563789"/>
  <flow id="JF83081" begin="1020" fromJunction="J3" toJunction="J4" end="1080" vehsPerHour="9.877003598420615"/>
  <flow id="JF83082" begin="1020" fromJunction="J3" toJunction="J2" end="1080" vehsPerHour="3.4680418351395925"/>
  <flow id="JF83083" begin="1020" fromJunction="J0" toJunction="J4" end="1080" vehsPerHour="31.68552690273699"/>
  <flow id="JF83084" begin="1020" fromJunction="J0" toJunction="J2" end="1080" vehsPerHour="3.023690427105881"/>
  <flow id="JF83085" begin="1020" fromJunction="J4" toJunction="J2" end="1080" vehsPerHour="44.80120810953171"/>
  <flow id="JF83086" begin="1020" fromJunction="J2" toJunction="J4" end="1080" vehsPerHour="37.1095489603941"/>
  <flow id="JF83087" begin="1020" fromJunction="J4" toJunction="J3" end="1080" vehsPerHour="109.56201302835717"/>
  <flow id="JF83088" begin="1020" fromJunction="J4" toJunction="J0" end="1080" vehsPerHour="18.778464521453536"/>
  <flow id="JF83089" begin="1020" fromJunction="J2" toJunction="J3" end="1080" vehsPerHour="101.5166289212254"/>
  <flow id="JF83090" begin="1020" fromJunction="J2" toJunction="J0" end="1080" vehsPerHour="42.33896082484731"/>
  <flow id="JF83091" begin="1080" fromJunction="J3" toJunction="J0" end="1140" vehsPerHour="418.12973356779656"/>
  <flow id="JF83092" begin="1080" fromJunction="J0" toJunction="J3" end="1140" vehsPerHour="269.1514712609971"/>
  <flow id="JF83093" begin="1080" fromJunction="J3" toJunction="J4" end="1140" vehsPerHour="90.48197997420783"/>
  <flow id="JF83094" begin="1080" fromJunction="J3" toJunction="J2" end="1140" vehsPerHour="108.05408825537444"/>
  <flow id="JF83095" begin="1080" fromJunction="J0" toJunction="J4" end="1140" vehsPerHour="35.533829873420764"/>
  <flow id="JF83096" begin="1080" fromJunction="J0" toJunction="J2" end="1140" vehsPerHour="96.87205179892106"/>
  <flow id="JF83097" begin="1080" fromJunction="J4" toJunction="J2" end="1140" vehsPerHour="101.82389202335953"/>
  <flow id="JF83098" begin="1080" fromJunction="J2" toJunction="J4" end="1140" vehsPerHour="25.966116212371663"/>
  <flow id="JF83099" begin="1080" fromJunction="J4" toJunction="J3" end="1140" vehsPerHour="106.88448145942435"/>
  <flow id="JF83100" begin="1080" fromJunction="J4" toJunction="J0" end="1140" vehsPerHour="22.420708658632186"/>
  <flow id="JF83101" begin="1080" fromJunction="J2" toJunction="J3" end="1140" vehsPerHour="106.66621388550122"/>
  <flow id="JF83102" begin="1080" fromJunction="J2" toJunction="J0" end="1140" vehsPerHour="133.42759070792516"/>
  <flow id="JF83103" begin="1140" fromJunction="J3" toJunction="J0" end="1200" vehsPerHour="332.69653837864905"/>
  <flow id="JF83104" begin="1140" fromJunction="J0" toJunction="J3" end="1200" vehsPerHour="336.3048804597505"/>
  <flow id="JF83105" begin="1140" fromJunction="J3" toJunction="J4" end="1200" vehsPerHour="130.6049530931715"/>
  <flow id="JF83106" begin="1140" fromJunction="J3" toJunction="J2" end="1200" vehsPerHour="30.898766682466302"/>
  <flow id="JF83107" begin="1140" fromJunction="J0" toJunction="J4" end="1200" vehsPerHour="129.22965372595573"/>
  <flow id="JF83108" begin="1140" fromJunction="J0" toJunction="J2" end="1200" vehsPerHour="23.904289968322608"/>
  <flow id="JF83109" begin="1140" fromJunction="J4" toJunction="J2" end="1200" vehsPerHour="4.3432146578961905"/>
  <flow id="JF83110" begin="1140" fromJunction="J2" toJunction="J4" end="1200" vehsPerHour="66.48912129425501"/>
  <flow id="JF83111" begin="1140" fromJunction="J4" toJunction="J3" end="1200" vehsPerHour="89.38615672473888"/>
  <flow id="JF83112" begin="1140" fromJunction="J4" toJunction="J0" end="1200" vehsPerHour="12.221813731260996"/>
  <flow id="JF83113" begin="1140" fromJunction="J2" toJunction="J3" end="1200" vehsPerHour="127.57350443351578"/>
  <flow id="JF83114" begin="1140" fromJunction="J2" toJunction="J0" end="1200" vehsPerHour="90.76040857488215"/>
  <flow id="JF83115" begin="1200" fromJunction="J3" toJunction="J0" end="1260" vehsPerHour="457.97993198620526"/>
  <flow id="JF83116" begin="1200" fromJunction="J0" toJunction="J3" end="1260" vehsPerHour="261.3853664882568"/>
  <flow id="JF83117" begin="1200" fromJunction="J3" toJunction="J4" end="1260" vehsPerHour="86.22404040518335"/>
  <flow id="JF83118" begin="1200" fromJunction="J3" toJunction="J2" end="1260" vehsPerHour="94.02979655699745"/>
  <flow id="JF83119" begin="1200" fromJunction="J0" toJunction="J4" end="1260" vehsPerHour="108.072406264994"/>
  <flow id="JF83120" begin="1200" fromJunction="J0" toJunction="J2" end="1260" vehsPerHour="80.15137188750195"/>
  <flow id="JF83121" begin="1260" fromJunction="J3" toJunction="J0" end="1320" vehsPerHour="171.86194138991416"/>
  <flow id="JF83122" begin="1260" fromJunction="J0" toJunction="J3" end="1320" vehsPerHour="259.21685225995355"/>
  <flow id="JF83123" begin="1260" fromJunction="J3" toJunction="J4" end="1320" vehsPerHour="99.61289570194717"/>
  <flow id="JF83124" begin="1260" fromJunction="J3" toJunction="J2" end="1320" vehsPerHour="29.135107197911772"/>
  <flow id="JF83125" begin="1260" fromJunction="J0" toJunction="J4" end="1320" vehsPerHour="105.75413078217595"/>
  <flow id="JF83126" begin="1260" fromJunction="J0" toJunction="J2" end="1320" vehsPerHour="43.86569262347238"/>
  <flow id="JF83127" begin="1260" fromJunction="J4" toJunction="J2" end="1320" vehsPerHour="49.049072956483535"/>
  <flow id="JF83128" begin="1260" fromJunction="J2" toJunction="J4" end="1320" vehsPerHour="101.65359429559037"/>
  <flow id="JF83129" begin="1260" fromJunction="J4" toJunction="J3" end="1320" vehsPerHour="56.096336781018486"/>
  <flow id="JF83130" begin="1260" fromJunction="J4" toJunction="J0" end="1320" vehsPerHour="80.79204312955032"/>
  <flow id="JF83131" begin="1260" fromJunction="J2" toJunction="J3" end="1320" vehsPerHour="121.28955610895096"/>
  <flow id="JF83132" begin="1260" fromJunction="J2" toJunction="J0" end="1320" vehsPerHour="89.41471183767455"/>
  <flow id="JF83133" begin="1320" fromJunction="J3" toJunction="J0" end="1380" vehsPerHour="211.15922620285178"/>
  <flow id="JF83134" begin="1320" fromJunction="J0" toJunction="J3" end="1380" vehsPerHour="89.75237482279498"/>
  <flow id="JF83135" begin="1320" fromJunction="J3" toJunction="J4" end="1380" vehsPerHour="87.05405036951021"/>
  <flow id="JF83136" begin="1320" fromJunction="J3" toJunction="J2" end="1380" vehsPerHour="48.6680809635922"/>
  <flow id="JF83137" begin="1320" fromJunction="J0" toJunction="J4" end="1380" vehsPerHour="37.68039027095129"/>
  <flow id="JF83138" begin="1320" fromJunction="J0" toJunction="J2" end="1380" vehsPerHour="32.21540895537943"/>
  <flow id="JF83139" begin="1320" fromJunction="J4" toJunction="J2" end="1380" vehsPerHour="29.713526408058904"/>
  <flow id="JF83140" begin="1320" fromJunction="J2" toJunction="J4" end="1380" vehsPerHour="14.724734150078774"/>
  <flow id="JF83141" begin="1320" fromJunction="J4" toJunction="J3" end="1380" vehsPerHour="16.447640528860344"/>
  <flow id="JF83142" begin="1320" fromJunction="J4" toJunction="J0" end="1380" vehsPerHour="51.45733960911362"/>
  <flow id="JF83143" begin="1320" fromJunction="J2" toJunction="J3" end="1380" vehsPerHour="4.148406327488818"/>
  <flow id="JF83144" begin="1320" fromJunction="J2" toJunction="J0" end="1380" vehsPerHour="43.35418754144896"/>
  <flow id="JF83145" begin="1380" fromJunction="J3" toJunction="J0" end="1440" vehsPerHour="534.0506574806775"/>
  <flow id="JF83146" begin="1380" fromJunction="J0" toJunction="J3" end="1440" vehsPerHour="116.12135277030332"/>
  <flow id="JF83147" begin="1380" fromJunction="J3" toJunction="J4" end="1440" vehsPerHour="63.07549571247658"/>
  <flow id="JF83148" begin="1380" fromJunction="J3" toJunction="J2" end="1440" vehsPerHour="61.36613383589745"/>
  <flow id="JF83149" begin="1380" fromJunction="J0" toJunction="J4" end="1440" vehsPerHour="100.89577732822053"/>
  <flow id="JF83150" begin="1380" fromJunction="J0" toJunction="J2" end="1440" vehsPerHour="15.52456856291755"/>
  <flow id="JF83151" begin="1380" fromJunction="J4" toJunction="J2" end="1440" vehsPerHour="52.40197736566023"/>
  <flow id="JF83152" begin="1380" fromJunction="J2" toJunction="J4" end="1440" vehsPerHour="48.53724202195182"/>
  <flow id="JF83153" begin="1380" fromJunction="J4" toJunction="J3" end="1440" vehsPerHour="48.073499819426765"/>
  <flow id="JF83154" begin="1380" fromJunction="J4" toJunction="J0" end="1440" vehsPerHour="103.8675088816842"/>
  <flow id="JF83155" begin="1380" fromJunction="J2" toJunction="J3" end="1440" vehsPerHour="117.62573303420923"/>
  <flow id="JF83156" begin="1380" fromJunction="J2" toJunction="J0" end="1440" vehsPerHour="75.32811269139452"/>
  <flow id="JF83157" begin="1440" fromJunction="J3" toJunction="J0" end="1500" vehsPerHour="106.1850943915471"/>
  <flow id="JF83158" begin="1440" fromJunction="J0" toJunction="J3" end="1500" vehsPerHour="362.5755460112788"/>
  <flow id="JF83159" begin="1440" fromJunction="J3" toJunction="J4" end="1500" vehsPerHour="95.19977829293487"/>
  <flow id="JF83160" begin="1440" fromJunction="J3" toJunction="J2" end="1500" vehsPerHour="36.61687550705299"/>
  <flow id="JF83161" begin="1440" fromJunction="J0" toJunction="J4" end="1500" vehsPerHour="61.18297080645326"/>
  <flow id="JF83162" begin="1440" fromJunction="J0" toJunction="J2" end="1500" vehsPerHour="41.790543519306105"/>
  <flow id="JF83163" begin="1440" fromJunction="J4" toJunction="J2" end="1500" vehsPerHour="83.39176061016146"/>
  <flow id="JF83164" begin="1440" fromJunction="J2" toJunction="J4" end="1500" vehsPerHour="71.35115953527787"/>