<?xml version="1.0" encoding="UTF-8"?>
<routes xmlns:xsi="http://www.w3.org/2001/XMLSchema-instance" xsi:noNamespaceSchemaLocation="http://sumo.dlr.de/xsd/routes_file.xsd">
  <flow id="JF72096" begin="0" fromJunction="J3" toJunction="J0" end="60" vehsPerHour="533.7198097741373"/>
  <flow id="JF72097" begin="0" fromJunction="J0" toJunction="J3" end="60" vehsPerHour="467.92385519934527"/>
  <flow id="JF72098" begin="0" fromJunction="J3" toJunction="J4" end="60" vehsPerHour="61.40305134475408"/>
  <flow id="JF72099" begin="0" fromJunction="J3" toJunction="J2" end="60" vehsPerHour="52.361454670983434"/>
  <flow id="JF72100" begin="0" fromJunction="J0" toJunction="J4" end="60" vehsPerHour="108.88762987450404"/>
  <flow id="JF72101" begin="0" fromJunction="J0" toJunction="J2" end="60" vehsPerHour="53.90360915320557"/>
  <flow id="JF72102" begin="0" fromJunction="J4" toJunction="J2" end="60" vehsPerHour="106.48660014891996"/>
  <flow id="JF72103" begin="0" fromJunction="J2" toJunction="J4" end="60" vehsPerHour="15.103260725117691"/>
  <flow id="JF72104" begin="0" fromJunction="J4" toJunction="J3" end="60" vehsPerHour="75.65420704375386"/>
  <flow id="JF72105" begin="0" fromJunction="J4" toJunction="J0" end="60" vehsPerHour="56.33486108850511"/>
  <flow id="JF72106" begin="0" fromJunction="J2" toJunction="J3" end="60" vehsPerHour="38.40588271975966"/>
  <flow id="JF72107" begin="0" fromJunction="J2" toJunction="J0" end="60" vehsPerHour="115.15479076357681"/>
  <flow id="JF72108" begin="60" fromJunction="J3" toJunction="J0" end="120" vehsPerHour="424.3953577737563"/>
  <flow id="JF72109" begin="60" fromJunction="J0" toJunction="J3" end="120" vehsPerHour="153.94079606658948"/>
  <flow id="JF72110" begin="60" fromJunction="J3" toJunction="J4" end="120" vehsPerHour="3.6825069341609558"/>
  <flow id="JF72111" begin="60" fromJunction="J3" toJunction="J2" end="120" vehsPerHour="74.61966781680496"/>
  <flow id="JF72112" begin="60" fromJunction="J0" toJunction="J4" end="120" vehsPerHour="120.93736884467718"/>
  <flow id="JF72113" begin="60" fromJunction="J0" toJunction="J2" end="120" vehsPerHour="128.93480301735636"/>
  <flow id="JF72114" begin="60" fromJunction="J4" toJunction="J2" end="120" vehsPerHour="36.499410460614115"/>
  <flow id="JF72115" begin="60" fromJunction="J2" toJunction="J4" end="120" vehsPerHour="81.05538586754535"/>
  <flow id="JF72116" begin="60" fromJunction="J4" toJunction="J3" end="120" vehsPerHour="120.34642194450923"/>
  <flow id="JF72117" begin="60" fromJunction="J4" toJunction="J0" end="120" vehsPerHour="61.327980660636726"/>
  <flow id="JF72118" begin="60" fromJunction="J2" toJunction="J3" end="120" vehsPerHour="127.76846273364238"/>
  <flow id="JF72119" begin="60" fromJunction="J2" toJunction="J0" end="120" vehsPerHour="119.2166719523182"/>
  <flow id="JF72120" begin="120" fromJunction="J3" toJunction="J0" end="180" vehsPerHour="10.339856018544388"/>
  <flow id="JF72121" begin="120" fromJunction="J0" toJunction="J3" end="180" vehsPerHour="43.85214775411675"/>
  <flow id="JF72122" begin="120" fromJunction="J3" toJunction="J4" end="180" vehsPerHour="73.6924622168638"/>
  <flow id="JF72123" begin="120" fromJunction="J3" toJunction="J2" end="180" vehsPerHour="71.48060745926902"/>
  <flow id="JF72124" begin="120" fromJunction="J0" toJunction="J4" end="180" vehsPerHour="4.038662683518566"/>
  <flow id="JF72125" begin="120" fromJunction="J0" toJunction="J2" end="180" vehsPerHour="113.79644394866217"/>
  <flow id="JF72126" begin="120" fromJunction="J4" toJunction="J2" end="180" vehsPerHour="0.889400830195151"/>
  <flow id="JF72127" begin="120" fromJunction="J2" toJunction="J4" end="180" vehsPerHour="74.28131464772807"/>
  <flow id="JF72128" begin="120" fromJunction="J4" toJunction="J3" end="180" vehsPerHour="12.620475114506359"/>
  <flow id="JF72129" begin="120" fromJunction="J4" toJunction="J0" end="180" vehsPerHour="52.93879393362337"/>
  <flow id="JF72130" begin="120" fromJunction="J2" toJunction="J3" end="180" vehsPerHour="69.52652902858159"/>
  <flow id="JF72131" begin="120" fromJunction="J2" toJunction="J0" end="180" vehsPerHour="39.23208064733109"/>
  <flow id="JF72132" begin="180" fromJunction="J3" toJunction="J0" end="240" vehsPerHour="30.14931188511875"/>
  <flow id="JF72133" begin="180" fromJunction="J0" toJunction="J3" end="240" vehsPerHour="176.6361027597106"/>
  <flow id="JF72134" begin="180" fromJunction="J3" toJunction="J4" end="240" vehsPerHour="14.76083822680602"/>
  <flow id="JF72135" begin="180" fromJunction="J3" toJunction="J2" end="240" vehsPerHour="110.29345758594756"/>
  <flow id="JF72136" begin="180" fromJunction="J0" toJunction="J4" end="240" vehsPerHour="112.14165769095412"/>
  <flow id="JF72137" begin="180" fromJunction="J0" toJunction="J2" end="240" vehsPerHour="116.11549917031084"/>
  <flow id="JF72138" begin="240" fromJunction="J3" toJunction="J0" end="300" vehsPerHour="184.6758446859126"/>
  <flow id="JF72139" begin="240" fromJunction="J0" toJunction="J3" end="300" vehsPerHour="325.48609248770146"/>
  <flow id="JF72140" begin="240" fromJunction="J3" toJunction="J4" end="300" vehsPerHour="81.73665921715856"/>
  <flow id="JF72141" begin="240" fromJunction="J3" toJunction="J2" end="300" vehsPerHour="60.41197379285328"/>
  <flow id="JF72142" begin="240" fromJunction="J0" toJunction="J4" end="300" vehsPerHour="94.6104857222244"/>
  <flow id="JF72143" begin="240" fromJunction="J0" toJunction="J2" end="300" vehsPerHour="92.24352540033826"/>
  <flow id="JF72144" begin="240" fromJunction="J4" toJunction="J2" end="300" vehsPerHour="38.31921306448818"/>
  <flow id="JF72145" begin="240" fromJunction="J2" toJunction="J4" end="300" vehsPerHour="57.22182653801132"/>
  <flow id="JF72146" begin="240" fromJunction="J4" toJunction="J3" end="300" vehsPerHour="69.80362984127973"/>
  <flow id="JF72147" begin="240" fromJunction="J4" toJunction="J0" end="300" vehsPerHour="118.82565709319907"/>
  <flow id="JF72148" begin="240" fromJunction="J2" toJunction="J3" end="300" vehsPerHour="27.749551346866237"/>
  <flow id="JF72149" begin="240" fromJunction="J2" toJunction="J0" end="300" vehsPerHour="80.66523731057413"/>
  <flow id="JF72150" begin="300" fromJunction="J3" toJunction="J0" end="360" vehsPerHour="403.4481185258081"/>
  <flow id="JF72151" begin="300" fromJunction="J0" toJunction="J3" end="360" vehsPerHour="466.59511768703857"/>
  <flow id="JF72152" begin="300" fromJunction="J3" toJunction="J4" end="360" vehsPerHour="50.416271150052154"/>
  <flow id="JF72153" begin="300" fromJunction="J3" toJunction="J2" end="360" vehsPerHour="22.39881223715183"/>
  <flow id="JF72154" begin="300" fromJunction="J0" toJunction="J4" end="360" vehsPerHour="25.953800023293983"/>
  <flow id="JF72155" begin="300" fromJunction="J0" toJunction="J2" end="360" vehsPerHour="108.95879886134117"/>
  <flow id="JF72156" begin="360" fromJunction="J3" toJunction="J0" end="420" vehsPerHour="219.1204079476358"/>
  <flow id="JF72157" begin="360" fromJunction="J0" toJunction="J3" end="420" vehsPerHour="416.17334516171434"/>
  <flow id="JF72158" begin="360" fromJunction="J3" toJunction="J4" end="420" vehsPerHour="7.194038532071879"/>
  <flow id="JF72159" begin="360" fromJunction="J3" toJunction="J2" end="420" vehsPerHour="14.23468989566689"/>
  <flow id="JF72160" begin="360" fromJunction="J0" toJunction="J4" end="420" vehsPerHour="60.029100090581935"/>
  <flow id="JF72161" begin="360" fromJunction="J0" toJunction="J2" end="420" vehsPerHour="10.892271267199012"/>
  <flow id="JF72162" begin="360" fromJunction="J4" toJunction="J2" end="420" vehsPerHour="86.17072747074647"/>
  <flow id="JF72163" begin="360" fromJunction="J2" toJunction="J4" end="420" vehsPerHour="118.65544912122907"/>
  <flow id="JF72164" begin="360" fromJunction="J4" toJunction="J3" end="420" vehsPerHour="37.12737043036111"/>
  <flow id="JF72165" begin="360" fromJunction="J4" toJunction="J0" end="420" vehsPerHour="110.82668257583502"/>
  <flow id="JF72166" begin="360" fromJunction="J2" toJunction="J3" end="420" vehsPerHour="73.86346941759203"/>
  <flow id="JF72167" begin="360" fromJunction="J2" toJunction="J0" end="420" vehsPerHour="2.8919441734623086"/>
  <flow id="JF72168" begin="420" fromJunction="J3" toJunction="J0" end="480" vehsPerHour="351.34583649523586"/>
  <flow id="JF72169" begin="420" fromJunction="J0" toJunction="J3" end="480" vehsPerHour="192.86595075531685"/>
  <flow id="JF72170" begin="420" fromJunction="J3" toJunction="J4" end="480" vehsPerHour="129.77527752502792"/>
  <flow id="JF72171" begin="420" fromJunction="J3" toJunction="J2" end="480" vehsPerHour="59.36137562168732"/>
  <flow id="JF72172" begin="420" fromJunction="J0" toJunction="J4" end="480" vehsPerHour="38.20525933312079"/>
  <flow id="JF72173" begin="420" fromJunction="J0" toJunction="J2" end="480" vehsPerHour="4.334293991846373"/>
  <flow id="JF72174" begin="420" fromJunction="J4" toJunction="J2" end="480" vehsPerHour="85.11179912365984"/>
  <flow id="JF72175" begin="420" fromJunction="J2" toJunction="J4" end="480" vehsPerHour="71.9391080829331"/>
  <flow id="JF72176" begin="420" fromJunction="J4" toJunction="J3" end="480" vehsPerHour="2.094511701177668"/>
  <flow id="JF72177" begin="420" fromJunction="J4" toJunction="J0" end="480" vehsPerHour="19.68585128912436"/>
  <flow id="JF72178" begin="420" fromJunction="J2" toJunction="J3" end="480" vehsPerHour="15.66113333236491"/>
  <flow id="JF72179" begin="420" fromJunction="J2" toJunction="J0" end="480" vehsPerHour="89.43048012442348"/>
  <flow id="JF72180" begin="480" fromJunction="J3" toJunction="J0" end="540" vehsPerHour="358.0413346563148"/>
  <flow id="JF72181" begin="480" fromJunction="J0" toJunction="J3" end="540" vehsPerHour="124.94549765887207"/>
  <flow id="JF72182" begin="480" fromJunction="J3" toJunction="J4" end="540" vehsPerHour="2.8398388068463145"/>
  <flow id="JF72183" begin="480" fromJunction="J3" toJunction="J2" end="540" vehsPerHour="59.78782743513996"/>
  <flow id="JF72184" begin="480" fromJunction="J0" toJunction="J4" end="540" vehsPerHour="37.99648250709428"/>
  <flow id="JF72185" begin="480" fromJunction="J0" toJunction="J2" end="540" vehsPerHour="89.51867492603851"/>
  <flow id="JF72186" begin="480" fromJunction="J4" toJunction="J2" end="540" vehsPerHour="132.17934719440916"/>
  <flow id="JF72187" begin="480" fromJunction="J2" toJunction="J4" end="540" vehsPerHour="82.55284240964538"/>
  <flow id="JF72188" begin="480" fromJunction="J4" toJunction="J3" end="540" vehsPerHour="40.740085161567"/>
  <flow id="JF72189" begin="480" fromJunction="J4" toJunction="J0" end="540" vehsPerHour="121.90628774721038"/>
  <flow id="JF72190" begin="480" fromJunction="J2" toJunction="J3" end="540" vehsPerHour="15.055862939000994"/>
  <flow id="JF72191" begin="480" fromJunction="J2" toJunction="J0" end="540" vehsPerHour="69.57953688453826"/>
  <flow id="JF72192" begin="540" fromJunction="J3" toJunction="J0" end="600" vehsPerHour="327.66096400055056"/>
  <flow id="JF72193" begin="540" fromJunction="J0" toJunction="J3" end="600" vehsPerHour="289.14462464434126"/>
  <flow id="JF72194" begin="540" fromJunction="J3" toJunction="J4" end="600" vehsPerHour="21.50373672408879"/>
  <flow id="JF72195" begin="540" fromJunction="J3" toJunction="J2" end="600" vehsPerHour="48.1522075716169"/>
  <flow id="JF72196" begin="540" fromJunction="J0" toJunction="J4" end="600" vehsPerHour="20.35356861965012"/>
  <flow id="JF72197" begin="540" fromJunction="J0" toJunction="J2" end="600" vehsPerHour="114.11037191172315"/>
  <flow id="JF72198" begin="600" fromJunction="J3" toJunction="J0" end="660" vehsPerHour="434.0847169086829"/>
  <flow id="JF72199" begin="600" fromJunction="J0" toJunction="J3" end="660" vehsPerHour="543.2800381131525"/>
  <flow id="JF72200" begin="600" fromJunction="J3" toJunction="J4" end="660" vehsPerHour="134.7353771924714"/>
  <flow id="JF72201" begin="600" fromJunction="J3" toJunction="J2" end="660" vehsPerHour="9.458930140453639"/>
  <flow id="JF72202" begin="600" fromJunction="J0" toJunction="J4" end="660" vehsPerHour="56.485365021580314"/>
  <flow id="JF72203" begin="600" fromJunction="J0" toJunction="J2" end="660" vehsPerHour="62.05065242526018"/>
  <flow id="JF72204" begin="600" fromJunction="J4" toJunction="J2" end="660" vehsPerHour="25.421332664493267"/>
  <flow id="JF72205" begin="600" fromJunction="J2" toJunction="J4" end="660" vehsPerHour="106.94720993169348"/>
  <flow id="JF72206" begin="600" fromJunction="J4" toJunction="J3" end="660" vehsPerHour="41.61509090340758"/>
  <flow id="JF72207" begin="600" fromJunction="J4" toJunction="J0" end="660" vehsPerHour="17.553256096642514"/>
  <flow id="JF72208" begin="600" fromJunction="J2" toJunction="J3" end="660" vehsPerHour="30.868386783448063"/>
  <flow id="JF72209" begin="600" fromJunction="J2" toJunction="J0" end="660" vehsPerHour="4.454180093291988"/>
  <flow id="JF72210" begin="660" fromJunction="J3" toJunction="J0" end="720" vehsPerHour="177.3423835088984"/>
  <flow id="JF72211" begin="660" fromJunction="J0" toJunction="J3" end="720" vehsPerHour="306.96804057923026"/>
  <flow id="JF72212" begin="660" fromJunction="J3" toJunction="J4" end="720" vehsPerHour="23.81703107764392"/>
  <flow id="JF72213" begin="660" fromJunction="J3" toJunction="J2" end="720" vehsPerHour="84.14072262417476"/>
  <flow id="JF72214" begin="660" fromJunction="J0" toJunction="J4" end="720" vehsPerHour="121.74421940123219"/>
  <flow id="JF72215" begin="660" fromJunction="J0" toJunction="J2" end="720" vehsPerHour="5.396725264723728"/>
  <flow id="JF72216" begin="660" fromJunction="J4" toJunction="J2" end="720" vehsPerHour="91.28646410046363"/>
  <flow id="JF72217" begin="660" fromJunction="J2" toJunction="J4" end="720" vehsPerHour="5.062413983594907"/>
  <flow id="JF72218" begin="660" fromJunction="J4" toJunction="J3" end="720" vehsPerHour="97.83927953289952"/>
  <flow id="JF72219" begin="660" fromJunction="J4" toJunction="J0" end="720" vehsPerHour="60.19727637093617"/>
  <flow id="JF72220" begin="660" fromJunction="J2" toJunction="J3" end="720" vehsPerHour="102.98839161158809"/>
  <flow id="JF72221" begin="660" fromJunction="J2" toJunction="J0" end="720" vehsPerHour="57.48323769232777"/>
  <flow id="JF72222" begin="720" fromJunction="J3" toJunction="J0" end="780" vehsPerHour="506.59269185793636"/>
  <flow id="JF72223" begin="720" fromJunction="J0" toJunction="J3" end="780" vehsPerHour="470.50564807765664"/>
  <flow id="JF72224" begin="720" fromJunction="J3" toJunction="J4" end="780" vehsPerHour="71.60040858126072"/>
  <flow id="JF72225" begin="720" fromJunction="J3" toJunction="J2" end="780" vehsPerHour="130.04986354049112"/>
  <flow id="JF72226" begin="720" fromJunction="J0" toJunction="J4" end="780" vehsPerHour="34.36305008809351"/>
  <flow id="JF72227" begin="720" fromJunction="J0" toJunction="J2" end="780" vehsPerHour="135.25933170308573"/>
  <flow id="JF72228" begin="720" fromJunction="J4" toJunction="J2" end="780" vehsPerHour="106.49825330899961"/>
  <flow id="JF72229" begin="720" fromJunction="J2" toJunction="J4" end="780" vehsPerHour="126.02201491837573"/>
  <flow id="JF72230" begin="720" fromJunction="J4" toJunction="J3" end="780" vehsPerHour="51.160249757592716"/>
  <flow id="JF72231" begin="720" fromJunction="J4" toJunction="J0" end="780" vehsPerHour="100.28540095396929"/>
  <flow id="JF72232" begin="720" fromJunction="J2" toJunction="J3" end="780" vehsPerHour="3.6451522096116484"/>
  <flow id="JF72233" begin="720" fromJunction="J2" toJunction="J0" end="780" vehsPerHour="7.329485788309574"/>
  <flow id="JF72234" begin="780" fromJunction="J3" toJunction="J0" end="840" vehsPerHour="409.17763518280435"/>
  <flow id="JF72235" begin="780" fromJunction="J0" toJunction="J3" end="840" vehsPerHour="319.1312710335551"/>
  <flow id="JF72236" begin="780" fromJunction="J3" toJunction="J4" end="840" vehsPerHour="39.33361277517053"/>
  <flow id="JF72237" begin="780" fromJunction="J3" toJunction="J2" end="840" vehsPerHour="23.23872477087301"/>
  <flow id="JF72238" begin="780" fromJunction="J0" toJunction="J4" end="840" vehsPerHour="25.51070366385801"/>
  <flow id="JF72239" begin="780" fromJunction="J0" toJunction="J2" end="840" vehsPerHour="40.1973088281423"/>
  <flow id="JF72240" begin="780" fromJunction="J4" toJunction="J2" end="840" vehsPerHour="6.9305471092181365"/>
  <flow id="JF72241" begin="780" fromJunction="J2" toJunction="J4" end="840" vehsPerHour="22.823943937613368"/>
  <flow id="JF72242" begin="780" fromJunction="J4" toJunction="J3" end="840" vehsPerHour="93.09362243739488"/>
  <flow id="JF72243" begin="780" fromJunction="J4" toJunction="J0" end="840" vehsPerHour="48.98682257450948"/>
  <flow id="JF72244" begin="780" fromJunction="J2" toJunction="J3" end="840" vehsPerHour="49.123343181277484"/>
  <flow id="JF72245" begin="780" fromJunction="J2" toJunction="J0" end="840" vehsPerHour="75.48991788529926"/>
  <flow id="JF72246" begin="840" fromJunction="J3" toJunction="J0" end="900" vehsPerHour="38.07494798121262"/>
  <flow id="JF72247" begin="840" fromJunction="J0" toJunction="J3" end="900" vehsPerHour="313.2190758496206"/>
  <flow id="JF72248" begin="840" fromJunction="J3" toJunction="J4" end="900" vehsPerHour="16.950649825306616"/>
  <flow id="JF72249" begin="840" fromJunction="J3" toJunction="J2" end="900" vehsPerHour="52.632699665686225"/>
  <flow id="JF72250" begin="840" fromJunction="J0" toJunction="J4" end="900" vehsPerHour="41.755932274405"/>
  <flow id="JF72251" begin="840" fromJunction="J0" toJunction="J2" end="900" vehsPerHour="125.07197771870923"/>
  <flow id="JF72252" begin="900" fromJunction="J3" toJunction="J0" end="960" vehsPerHour="100.42651289391992"/>
  <flow id="JF72253" begin="900" fromJunction="J0" toJunction="J3" end="960" vehsPerHour="224.46175380544472"/>
  <flow id="JF72254" begin="900" fromJunction="J3" toJunction="J4" end="960" vehsPerHour="30.699644374401917"/>
  <flow id="JF72255" begin="900" fromJunction="J3" toJunction="J2" end="960" vehsPerHour="26.592996000673974"/>
  <flow id="JF72256" begin="900" fromJunction="J0" toJunction="J4" end="960" vehsPerHour="123.44951803042854"/>
  <flow id="JF72257" begin="900" fromJunction="J0" toJunction="J2" end="960" vehsPerHour="22.233331803307596"/>
  <flow id="JF72258" begin="900" fromJunction="J4" toJunction="J2" end="960" vehsPerHour="18.47569154928202"/>
  <flow id="JF72259" begin="900" fromJunction="J2" toJunction="J4" end="960" vehsPerHour="29.136768038683652"/>
  <flow id="JF72260" begin="900" fromJunction="J4" toJunction="J3" end="960" vehsPerHour="31.04238131925498"/>
  <flow id="JF72261" begin="900" fromJunction="J4" toJunction="J0" end="960" vehsPerHour="14.640014957937913"/>
  <flow id="JF72262" begin="900" fromJunction="J2" toJunction="J3" end="960" vehsPerHour="0.09253231297047675"/>
  <flow id="JF72263" begin="900" fromJunction="J2" toJunction="J0" end="960" vehsPerHour="75.22861116019541"/>
  <flow id="JF72264" begin="960" fromJunction="J3" toJunction="J0" end="1020" vehsPerHour="178.8293563586005"/>
  <flow id="JF72265" begin="960" fromJunction="J0" toJunction="J3" end="1020" vehsPerHour="406.0167888802738"/>
  <flow id="JF72266" begin="960" fromJunction="J3" toJunction="J4" end="1020" vehsPerHour="67.05029117457802"/>
  <flow id="JF72267" begin="960" fromJunction="J3" toJunction="J2" end="1020" vehsPerHour="101.88167114170449"/>
  <flow id="JF72268" begin="960" fromJunction="J0" toJunction="J4" end="1020" vehsPerHour="105.98253376315475"/>
  <flow id="JF72269" begin="960" fromJunction="J0" toJunction="J2" end="1020" vehsPerHour="125.55126517314979"/>
  <flow id="JF72270" begin="960" fromJunction="J4" toJunction="J2" end="1020" vehsPerHour="46.4226553035054"/>
  <flow id="JF72271" begin="960" fromJunction="J2" toJunction="J4" end="1020" vehsPerHour="50.152301748411844"/>
  <flow id="JF72272" begin="960" fromJunction="J4" toJunction="J3" end="1020" vehsPerHour="85.92151342966994"/>
  <flow id="JF72273" begin="960" fromJunction="J4" toJunction="J0" end="1020" vehsPerHour="100.55934606303984"/>
  <flow id="JF72274" begin="960" fromJunction="J2" toJunction="J3" end="1020" vehsPerHour="105.82473190744967"/>
  <flow id="JF72275" begin="960" fromJunction="J2" toJunction="J0" end="1020" vehsPerHour="29.63568177926587"/>
  <flow id="JF72276" begin="1020" fromJunction="J3" toJunction="J0" end="1080" vehsPerHour="535.7331136277592"/>
  <flow id="JF72277" begin="1020" fromJunction="J0" toJunction="J3" end="1080" vehsPerHour="374.16511317976455"/>
  <flow id="JF72278" begin="1020" fromJunction="J3" toJunction="J4" end="1080" vehsPerHour="114.53621792084178"/>
  <flow id="JF72279" begin="1020" fromJunction="J3" toJunction="J2" end="1080" vehsPerHour="6.460185418231179"/>
  <flow id="JF72280" begin="1020" fromJunction="J0" toJunction="J4" end="1080" vehsPerHour="76.7802966178902"/>
  <flow id="JF72281" begin="1020" fromJunction="J0" toJunction="J2" end="1080" vehsPerHour="71.17029340317822"/>
  <flow id="JF72282" begin="1020" fromJunction="J4" toJunction="J2" end="1080" vehsPerHour="7.488754886907022"/>
  <flow id="JF72283" begin="1020" fromJunction="J2" toJunction="J4" end="1080" vehsPerHour="125.32122546785831"/>
  <flow id="JF72284" begin="1020" fromJunction="J4" toJunction="J3" end="1080" vehsPerHour="128.1556091443705"/>
  <flow id="JF72285" begin="1020" fromJunction="J4" toJunction="J0" end="1080" vehsPerHour="72.24198949462308"/>
  <flow id="JF72286" begin="1020" fromJunction="J2" toJunction="J3" end="1080" vehsPerHour="56.90903877065747"/>
  <flow id="JF72287" begin="1020" fromJunction="J2" toJunction="J0" end="1080" vehsPerHour="10.077694917674691"/>
  <flow id="JF72288" begin="1080" fromJunction="J3" toJunction="J0" end="1140" vehsPerHour="216.18822407721052"/>
  <flow id="JF72289" begin="1080" fromJunction="J0" toJunction="J3" end="1140" vehsPerHour="463.3740437453676"/>
  <flow id="JF72290" begin="1080" fromJunction="J3" toJunction="J4" end="1140" vehsPerHour="99.42178536126734"/>
  <flow id="JF72291" begin="1080" fromJunction="J3" toJunction="J2" end="1140" vehsPerHour="86.87770316229106"/>
  <flow id="JF72292" begin="1080" fromJunction="J0" toJunction="J4" end="1140" vehsPerHour="85.8109549941581"/>
  <flow id="JF72293" begin="1080" fromJunction="J0" toJunction="J2" end="1140" vehsPerHour="72.19761505676739"/>
  <flow id="JF72294" begin="1140" fromJunction="J3" toJunction="J0" end="1200" vehsPerHour="541.8986298567781"/>
  <flow id="JF72295" begin="1140" fromJunction="J0" toJunction="J3" end="1200" vehsPerHour="30.089842886961637"/>
  <flow id="JF72296" begin="1140" fromJunction="J3" toJunction="J4" end="1200" vehsPerHour="20.845888109412684"/>
  <flow id="JF72297" begin="1140" fromJunction="J3" toJunction="J2" end="1200" vehsPerHour="98.78704249737498"/>
  <flow id="JF72298" begin="1140" fromJunction="J0" toJunction="J4" end="1200" vehsPerHour="7.060392784231621"/>
  <flow id="JF72299" begin="1140" fromJunction="J0" toJunction="J2" end="1200" vehsPerHour="105.30222978227982"/>
  <flow id="JF72300" begin="1140" fromJunction="J4" toJunction="J2" end="1200" vehsPerHour="61.11604324817566"/>
  <flow id="JF72301" begin="1140" fromJunction="J2" toJunction="J4" end="1200" vehsPerHour="80.28154628329175"/>
  <flow id="JF72302" begin="1140" fromJunction="J4" toJunction="J3" end="1200" vehsPerHour="19.728230282543404"/>
  <flow id="JF72303" begin="1140" fromJunction="J4" toJunction="J0" end="1200" vehsPerHour="74.72510548292549"/>
  <flow id="JF72304" begin="1140" fromJunction="J2" toJunction="J3" end="1200" vehsPerHour="124.41099408063211"/>
  <flow id="JF72305" begin="1140" fromJunction="J2" toJunction="J0" end="1200" vehsPerHour="135.6206221784928"/>
  <flow id="JF72306" begin="1200" fromJunction="J3" toJunction="J0" end="1260" vehsPerHour="420.72821913051587"/>
  <flow id="JF72307" begin="1200" fromJunction="J0" toJunction="J3" end="1260" vehsPerHour="419.3585178406331"/>
  <flow id="JF72308" begin="1200" fromJunction="J3" toJunction="J4" end="1260" vehsPerHour="67.9480833879276"/>
  <flow id="JF72309" begin="1200" fromJunction="J3" toJunction="J2" end="1260" vehsPerHour="22.5126044993348"/>
  <flow id="JF72310" begin="1200" fromJunction="J0" toJunction="J4" end="1260" vehsPerHour="52.17436748911581"/>
  <flow id="JF72311" begin="1200" fromJunction="J0" toJunction="J2" end="1260" vehsPerHour="28.04763366828908"/>
  <flow id="JF72312" begin="1260" fromJunction="J3" toJunction="J0" end="1320" vehsPerHour="323.4524872376166"/>
  <flow id="JF72313" begin="1260" fromJunction="J0" toJunction="J3" end="1320" vehsPerHour="279.4422788985997"/>
  <flow id="JF72314" begin="1260" fromJunction="J3" toJunction="J4" end="1320" vehsPerHour="31.229978209732"/>
  <flow id="JF72315" begin="1260" fromJunction="J3" toJunction="J2" end="1320" vehsPerHour="67.99889853285309"/>
  <flow id="JF72316" begin="1260" fromJunction="J0" toJunction="J4" end="1320" vehsPerHour="59.81203951556576"/>
  <flow id="JF72317" begin="1260" fromJunction="J0" toJunction="J2" end="1320" vehsPerHour="100.96130503764799"/>
  <flow id="JF72318" begin="1260" fromJunction="J4" toJunction="J2" end="1320" vehsPerHour="40.99474766247396"/>
  <flow id="JF72319" begin="1260" fromJunction="J2" toJunction="J4" end="1320" vehsPerHour="53.54508791349306"/>
  <flow id="JF72320" begin="1260" fromJunction="J4" toJunction="J3" end="1320" vehsPerHour="124.4008433370789"/>
  <flow id="JF72321" begin="1260" fromJunction="J4" toJunction="J0" end="1320" vehsPerHour="80.67569743578558"/>
  <flow id="JF72322" begin="1260" fromJunction="J2" toJunction="J3" end="1320" vehsPerHour="126.93730222164405"/>
  <flow id="JF72323" begin="1260" fromJunction="J2" toJunction="J0" end="1320" vehsPerHour="67.35750122078797"/>
  <flow id="JF72324" begin="1320" fromJunction="J3" toJunction="J0" end="1380" vehsPerHour="338.5634120480094"/>
  <flow id="JF72325" begin="1320" fromJunction="J0" toJunction="J3" end="1380" vehsPerHour="357.93179243730424"/>
  <flow id="JF72326" begin="1320" fromJunction="J3" toJunction="J4" end="1380" vehsPerHour="32.88339437139059"/>
  <flow id="JF72327" begin="1320" fromJunction="J3" toJunction="J2" end="1380" vehsPerHour="121.460942932769"/>
  <flow id="JF72328" begin="1320" fromJunction="J0" toJunction="J4" end="1380" vehsPerHour="23.533196695081774"/>
  <flow id="JF72329" begin="1320" fromJunction="J0" toJunction="J2" end="1380" vehsPerHour="24.045674955913096"/>
  <flow id="JF72330" begin="1380" fromJunction="J3" toJunction="J0" end="1440" vehsPerHour="379.3094946929503"/>
  <flow id="JF72331" begin="1380" fromJunction="J0" toJunction="J3" end="1440" vehsPerHour="500.3224878512421"/>
  <flow id="JF72332" begin="1380" fromJunction="J3" toJunction="J4" end="1440" vehsPerHour="54.18048320267867"/>
  <flow id="JF72333" begin="1380" fromJunction="J3" toJunction="J2" end="1440" vehsPerHour="44.332022701453376"/>
  <flow id="JF72334" begin="1380" fromJunction="J0" toJunction="J4" end="1440" vehsPerHour="137.31113266270498"/>
  <flow id="JF72335" begin="1380" fromJunction="J0" toJunction="J2" end="1440" vehsPerHour="130.5009524839161"/>
  <flow id="JF72336" begin="1440" fromJunction="J3" toJunction="J0" end="1500" vehsPerHour="3.703656562657305"/>
  <flow id="JF72337" begin="1440" fromJunction="J0" toJunction="J3" end="1500" vehsPerHour="215.87468507708948"/>
  <flow id="JF72338" begin="1440" fromJunction="J3" toJunction="J4" end="1500" vehsPerHour="27.39838088880461"/>
  <flow id="JF72339" begin="1440" fromJunction="J3" toJunction="J2" end="1500" vehsPerHour="114.00089956684735"/>
  <flow id="JF72340" begin="1440" fromJunction="J0" toJunction="J4" end="1500" vehsPerHour="135.48562084104955"/>
  <flow id="JF72341" begin="1440" fromJunction="J0" toJunction="J2" end="1500" vehsPerHour="35.47562034429891"/>
  <flow id="JF72342" begin="1440" fromJunction="J4" toJunction="J2" end="1500" vehsPerHour="109.0485849647173"/>
  <flow id="JF72343" begin="1440" fromJunction="J2" toJunction="J4" end="1500" vehsPerHour="1.367425183315585"/>
  <flow id="JF72344" begin="1440" fromJunction="J4" toJunction="J3" end="1500" vehsPerHour="42.11492630548763"/>
  <flow id="JF72345" begin="1440" fromJunction="J4" toJunction="J0" end="1500" vehsPerHour="49.12700903598349"/>
  <flow id="JF72346" begin="1440" fromJunction="J2" toJunction="J3" end="1500" vehsPerHour="112.54187913767485"/>
  <flow id="JF72347" begin="1440" fromJunction="J2" toJunction="J0" end="1500" vehsPerHour="86.81605931824156"/>
  <flow id="JF72348" begin="1500" fromJunction="J3" toJunction="J0" end="1560" vehsPerHour="187.7939138340536"/>
  <flow id="JF72349" begin="1500" fromJunction="J0" toJunction="J3" end="1560" vehsPerHour="500.7817595245818"/>
  <flow id="JF72350" begin="1500" fromJunction="J3" toJunction="J4" end="1560" vehsPerHour="8.16641458865778"/>
  <flow id="JF72351" begin="1500" fromJunction="J3" toJunction="J2" end="1560" vehsPerHour="118.14518936922579"/>
  <flow id="JF72352" begin="1500" fromJunction="J0" toJunction="J4" end="1560" vehsPerHour="67.78567731824089"/>
  <flow id="JF72353" begin="1500" fromJunction="J0" toJunction="J2" end="1560" vehsPerHour="80.79196860050811"/>
  <flow id="JF72354" begin="1560" fromJunction="J3" toJunction="J0" end="1620" vehsPerHour="234.94051354518245"/>
  <flow id="JF72355" begin="1560" fromJunction="J0" toJunction="J3" end="1620" vehsPerHour="182.20291811783733"/>
  <flow id="JF72356" begin="1560" fromJunction="J3" toJunction="J4" end="1620" vehsPerHour="111.05424243620858"/>
  <flow id="JF72357" begin="1560" fromJunction="J3" toJunction="J2" end="1620" vehsPerHour="38.271003395948334"/>
  <flow id="JF72358" begin="1560" fromJunction="J0" toJunction="J4" end="1620" vehsPerHour="90.20141398125455"/>
  <flow id="JF72359" begin="1560" fromJunction="J0" toJunction="J2" end="1620" vehsPerHour="19.576028083873577"/>
  <flow id="JF72360" begin="1620" fromJunction="J3" toJunction="J0" end="1680" vehsPerHour="150.52942100716552"/>
  <flow id="JF72361" begin="1620" fromJunction="J0" toJunction="J3" end="1680" vehsPerHour="351.71834173355245"/>