<?xml version="1.0" encoding="UTF-8"?>
<routes xmlns:xsi="http://www.w3.org/2001/XMLSchema-instance" xsi:noNamespaceSchemaLocation="http://sumo.dlr.de/xsd/routes_file.xsd">
  <flow id="JF75168" begin="0" fromJunction="J3" toJunction="J0" end="60" vehsPerHour="71.39265444924696"/>
  <flow id="JF75169" begin="0" fromJunction="J0" toJunction="J3" end="60" vehsPerHour="407.00315728432025"/>
  <flow id="JF75170" begin="0" fromJunction="J3" toJunction="J4" end="60" vehsPerHour="55.379898477951194"/>
  <flow id="JF75171" begin="0" fromJunction="J3" toJunction="J2" end="60" vehsPerHour="70.1769171484021"/>
  <flow id="JF75172" begin="0" fromJunction="J0" toJunction="J4" end="60" vehsPerHour="33.069311995955836"/>
  <flow id="JF75173" begin="0" fromJunction="J0" toJunction="J2" end="60" vehsPerHour="102.75487684916924"/>
  <flow id="JF75174" begin="60" fromJunction="J3" toJunction="J0" end="120" vehsPerHour="333.79305962545345"/>
  <flow id="JF75175" begin="60" fromJunction="J0" toJunction="J3" end="120" vehsPerHour="270.7041672578476"/>
  <flow id="JF75176" begin="60" fromJunction="J3" toJunction="J4" end="120" vehsPerHour="130.30655113881173"/>
  <flow id="JF75177" begin="60" fromJunction="J3" toJunction="J2" end="120" vehsPerHour="107.27235930600604"/>
  <flow id="JF75178" begin="60" fromJunction="J0" toJunction="J4" end="120" vehsPerHour="39.56788456765747"/>
  <flow id="JF75179" begin="60" fromJunction="J0" toJunction="J2" end="120" vehsPerHour="6.3994882353689535"/>
  <flow id="JF75180" begin="60" fromJunction="J4" toJunction="J2" end="120" vehsPerHour="9.856499379270707"/>
  <flow id="JF75181" begin="60" fromJunction="J2" toJunction="J4" end="120" vehsPerHour="116.98415882836798"/>
  <flow id="JF75182" begin="60" fromJunction="J4" toJunction="J3" end="120" vehsPerHour="93.71426616427365"/>
  <flow id="JF75183" begin="60" fromJunction="J4" toJunction="J0" end="120" vehsPerHour="81.99594152688393"/>
  <flow id="JF75184" begin="60" fromJunction="J2" toJunction="J3" end="120" vehsPerHour="15.113783154785052"/>
  <flow id="JF75185" begin="60" fromJunction="J2" toJunction="J0" end="120" vehsPerHour="117.7767592258779"/>
  <flow id="JF75186" begin="120" fromJunction="J3" toJunction="J0" end="180" vehsPerHour="359.9498471370343"/>
  <flow id="JF75187" begin="120" fromJunction="J0" toJunction="J3" end="180" vehsPerHour="25.710102117441547"/>
  <flow id="JF75188" begin="120" fromJunction="J3" toJunction="J4" end="180" vehsPerHour="106.90936511316"/>
  <flow id="JF75189" begin="120" fromJunction="J3" toJunction="J2" end="180" vehsPerHour="82.55777667246085"/>
  <flow id="JF75190" begin="120" fromJunction="J0" toJunction="J4" end="180" vehsPerHour="94.49090534149654"/>
  <flow id="JF75191" begin="120" fromJunction="J0" toJunction="J2" end="180" vehsPerHour="14.687400041618588"/>
  <flow id="JF75192" begin="180" fromJunction="J3" toJunction="J0" end="240" vehsPerHour="232.9891699804458"/>
  <flow id="JF75193" begin="180" fromJunction="J0" toJunction="J3" end="240" vehsPerHour="14.765452789282438"/>
  <flow id="JF75194" begin="180" fromJunction="J3" toJunction="J4" end="240" vehsPerHour="28.109352225865216"/>
  <flow id="JF75195" begin="180" fromJunction="J3" toJunction="J2" end="240" vehsPerHour="131.26834115896762"/>
  <flow id="JF75196" begin="180" fromJunction="J0" toJunction="J4" end="240" vehsPerHour="33.520556370831045"/>
  <flow id="JF75197" begin="180" fromJunction="J0" toJunction="J2" end="240" vehsPerHour="15.661408364356413"/>
  <flow id="JF75198" begin="240" fromJunction="J3" toJunction="J0" end="300" vehsPerHour="540.7859570851476"/>
  <flow id="JF75199" begin="240" fromJunction="J0" toJunction="J3" end="300" vehsPerHour="439.112904643747"/>
  <flow id="JF75200" begin="240" fromJunction="J3" toJunction="J4" end="300" vehsPerHour="115.0606934801292"/>
  <flow id="JF75201" begin="240" fromJunction="J3" toJunction="J2" end="300" vehsPerHour="36.78824718443271"/>
  <flow id="JF75202" begin="240" fromJunction="J0" toJunction="J4" end="300" vehsPerHour="76.6619059390709"/>
  <flow id="JF75203" begin="240" fromJunction="J0" toJunction="J2" end="300" vehsPerHour="84.32106266340685"/>
  <flow id="JF75204" begin="240" fromJunction="J4" toJunction="J2" end="300" vehsPerHour="80.81756261560709"/>
  <flow id="JF75205" begin="240" fromJunction="J2" toJunction="J4" end="300" vehsPerHour="86.85338130095543"/>
  <flow id="JF75206" begin="240" fromJunction="J4" toJunction="J3" end="300" vehsPerHour="114.28990327941334"/>
  <flow id="JF75207" begin="240" fromJunction="J4" toJunction="J0" end="300" vehsPerHour="77.85972016935656"/>
  <flow id="JF75208" begin="240" fromJunction="J2" toJunction="J3" end="300" vehsPerHour="39.90956167075322"/>
  <flow id="JF75209" begin="240" fromJunction="J2" toJunction="J0" end="300" vehsPerHour="101.2486824727411"/>
  <flow id="JF75210" begin="300" fromJunction="J3" toJunction="J0" end="360" vehsPerHour="546.6865816790787"/>
  <flow id="JF75211" begin="300" fromJunction="J0" toJunction="J3" end="360" vehsPerHour="75.52394497033413"/>
  <flow id="JF75212" begin="300" fromJunction="J3" toJunction="J4" end="360" vehsPerHour="86.99646500815074"/>
  <flow id="JF75213" begin="300" fromJunction="J3" toJunction="J2" end="360" vehsPerHour="107.20056351154462"/>
  <flow id="JF75214" begin="300" fromJunction="J0" toJunction="J4" end="360" vehsPerHour="29.876019078806614"/>
  <flow id="JF75215" begin="300" fromJunction="J0" toJunction="J2" end="360" vehsPerHour="79.3049352645456"/>
  <flow id="JF75216" begin="300" fromJunction="J4" toJunction="J2" end="360" vehsPerHour="74.62731339722338"/>
  <flow id="JF75217" begin="300" fromJunction="J2" toJunction="J4" end="360" vehsPerHour="65.86150726231348"/>
  <flow id="JF75218" begin="300" fromJunction="J4" toJunction="J3" end="360" vehsPerHour="102.32791387027021"/>
  <flow id="JF75219" begin="300" fromJunction="J4" toJunction="J0" end="360" vehsPerHour="70.82955071263464"/>
  <flow id="JF75220" begin="300" fromJunction="J2" toJunction="J3" end="360" vehsPerHour="36.07069242953446"/>
  <flow id="JF75221" begin="300" fromJunction="J2" toJunction="J0" end="360" vehsPerHour="38.58622525704549"/>
  <flow id="JF75222" begin="360" fromJunction="J3" toJunction="J0" end="420" vehsPerHour="548.7371159363967"/>
  <flow id="JF75223" begin="360" fromJunction="J0" toJunction="J3" end="420" vehsPerHour="258.6178780664915"/>
  <flow id="JF75224" begin="360" fromJunction="J3" toJunction="J4" end="420" vehsPerHour="100.82153902419498"/>
  <flow id="JF75225" begin="360" fromJunction="J3" toJunction="J2" end="420" vehsPerHour="26.08706036093688"/>
  <flow id="JF75226" begin="360" fromJunction="J0" toJunction="J4" end="420" vehsPerHour="21.50333467465319"/>
  <flow id="JF75227" begin="360" fromJunction="J0" toJunction="J2" end="420" vehsPerHour="72.52602854409488"/>
  <flow id="JF75228" begin="360" fromJunction="J4" toJunction="J2" end="420" vehsPerHour="107.87608459596873"/>
  <flow id="JF75229" begin="360" fromJunction="J2" toJunction="J4" end="420" vehsPerHour="80.42459664244596"/>
  <flow id="JF75230" begin="360" fromJunction="J4" toJunction="J3" end="420" vehsPerHour="35.747181401559864"/>
  <flow id="JF75231" begin="360" fromJunction="J4" toJunction="J0" end="420" vehsPerHour="71.30153631094711"/>
  <flow id="JF75232" begin="360" fromJunction="J2" toJunction="J3" end="420" vehsPerHour="46.10776699425215"/>
  <flow id="JF75233" begin="360" fromJunction="J2" toJunction="J0" end="420" vehsPerHour="91.66525615022826"/>
  <flow id="JF75234" begin="420" fromJunction="J3" toJunction="J0" end="480" vehsPerHour="302.2986490351101"/>
  <flow id="JF75235" begin="420" fromJunction="J0" toJunction="J3" end="480" vehsPerHour="532.9856693116553"/>
  <flow id="JF75236" begin="420" fromJunction="J3" toJunction="J4" end="480" vehsPerHour="88.95355164541377"/>
  <flow id="JF75237" begin="420" fromJunction="J3" toJunction="J2" end="480" vehsPerHour="130.53464966911793"/>
  <flow id="JF75238" begin="420" fromJunction="J0" toJunction="J4" end="480" vehsPerHour="136.57120861703484"/>
  <flow id="JF75239" begin="420" fromJunction="J0" toJunction="J2" end="480" vehsPerHour="108.89920476202411"/>
  <flow id="JF75240" begin="480" fromJunction="J3" toJunction="J0" end="540" vehsPerHour="320.16606460872373"/>
  <flow id="JF75241" begin="480" fromJunction="J0" toJunction="J3" end="540" vehsPerHour="13.670315533332749"/>
  <flow id="JF75242" begin="480" fromJunction="J3" toJunction="J4" end="540" vehsPerHour="19.6386754559658"/>
  <flow id="JF75243" begin="480" fromJunction="J3" toJunction="J2" end="540" vehsPerHour="40.80688926946948"/>
  <flow id="JF75244" begin="480" fromJunction="J0" toJunction="J4" end="540" vehsPerHour="87.66550377439494"/>
  <flow id="JF75245" begin="480" fromJunction="J0" toJunction="J2" end="540" vehsPerHour="94.91561722079739"/>
  <flow id="JF75246" begin="480" fromJunction="J4" toJunction="J2" end="540" vehsPerHour="22.739149103000745"/>
  <flow id="JF75247" begin="480" fromJunction="J2" toJunction="J4" end="540" vehsPerHour="117.48937121544428"/>
  <flow id="JF75248" begin="480" fromJunction="J4" toJunction="J3" end="540" vehsPerHour="76.2902034532291"/>
  <flow id="JF75249" begin="480" fromJunction="J4" toJunction="J0" end="540" vehsPerHour="23.650644196456255"/>
  <flow id="JF75250" begin="480" fromJunction="J2" toJunction="J3" end="540" vehsPerHour="97.68278029665633"/>
  <flow id="JF75251" begin="480" fromJunction="J2" toJunction="J0" end="540" vehsPerHour="47.261367369025464"/>
  <flow id="JF75252" begin="540" fromJunction="J3" toJunction="J0" end="600" vehsPerHour="481.3814399898616"/>
  <flow id="JF75253" begin="540" fromJunction="J0" toJunction="J3" end="600" vehsPerHour="535.1726658551497"/>
  <flow id="JF75254" begin="540" fromJunction="J3" toJunction="J4" end="600" vehsPerHour="32.59831863410194"/>
  <flow id="JF75255" begin="540" fromJunction="J3" toJunction="J2" end="600" vehsPerHour="85.0318431218395"/>
  <flow id="JF75256" begin="540" fromJunction="J0" toJunction="J4" end="600" vehsPerHour="3.4789823520817458"/>
  <flow id="JF75257" begin="540" fromJunction="J0" toJunction="J2" end="600" vehsPerHour="135.29556566779647"/>
  <flow id="JF75258" begin="540" fromJunction="J4" toJunction="J2" end="600" vehsPerHour="72.3903134487427"/>
  <flow id="JF75259" begin="540" fromJunction="J2" toJunction="J4" end="600" vehsPerHour="67.04925582541442"/>
  <flow id="JF75260" begin="540" fromJunction="J4" toJunction="J3" end="600" vehsPerHour="95.8038958069318"/>
  <flow id="JF75261" begin="540" fromJunction="J4" toJunction="J0" end="600" vehsPerHour="60.51836033288965"/>
  <flow id="JF75262" begin="540" fromJunction="J2" toJunction="J3" end="600" vehsPerHour="47.720821757680866"/>
  <flow id="JF75263" begin="540" fromJunction="J2" toJunction="J0" end="600" vehsPerHour="78.58123471920331"/>
  <flow id="JF75264" begin="600" fromJunction="J3" toJunction="J0" end="660" vehsPerHour="369.8755421750377"/>
  <flow id="JF75265" begin="600" fromJunction="J0" toJunction="J3" end="660" vehsPerHour="96.50241321218428"/>
  <flow id="JF75266" begin="600" fromJunction="J3" toJunction="J4" end="660" vehsPerHour="65.84115066199863"/>
  <flow id="JF75267" begin="600" fromJunction="J3" toJunction="J2" end="660" vehsPerHour="48.27420519515764"/>
  <flow id="JF75268" begin="600" fromJunction="J0" toJunction="J4" end="660" vehsPerHour="113.94992214524851"/>
  <flow id="JF75269" begin="600" fromJunction="J0" toJunction="J2" end="660" vehsPerHour="29.214618843793073"/>
  <flow id="JF75270" begin="600" fromJunction="J4" toJunction="J2" end="660" vehsPerHour="20.19089119437212"/>
  <flow id="JF75271" begin="600" fromJunction="J2" toJunction="J4" end="660" vehsPerHour="28.80529657473618"/>
  <flow id="JF75272" begin="600" fromJunction="J4" toJunction="J3" end="660" vehsPerHour="58.15648193551818"/>
  <flow id="JF75273" begin="600" fromJunction="J4" toJunction="J0" end="660" vehsPerHour="19.56859103816419"/>
  <flow id="JF75274" begin="600" fromJunction="J2" toJunction="J3" end="660" vehsPerHour="52.80617496150288"/>
  <flow id="JF75275" begin="600" fromJunction="J2" toJunction="J0" end="660" vehsPerHour="95.35188515822485"/>
  <flow id="JF75276" begin="660" fromJunction="J3" toJunction="J0" end="720" vehsPerHour="238.304530137641"/>
  <flow id="JF75277" begin="660" fromJunction="J0" toJunction="J3" end="720" vehsPerHour="154.2883137806971"/>
  <flow id="JF75278" begin="660" fromJunction="J3" toJunction="J4" end="720" vehsPerHour="85.82590591514962"/>
  <flow id="JF75279" begin="660" fromJunction="J3" toJunction="J2" end="720" vehsPerHour="78.95063744200284"/>
  <flow id="JF75280" begin="660" fromJunction="J0" toJunction="J4" end="720" vehsPerHour="41.79066235522693"/>
  <flow id="JF75281" begin="660" fromJunction="J0" toJunction="J2" end="720" vehsPerHour="135.96628184170967"/>
  <flow id="JF75282" begin="660" fromJunction="J4" toJunction="J2" end="720" vehsPerHour="23.44805934871318"/>
  <flow id="JF75283" begin="660" fromJunction="J2" toJunction="J4" end="720" vehsPerHour="14.09168637487735"/>
  <flow id="JF75284" begin="660" fromJunction="J4" toJunction="J3" end="720" vehsPerHour="125.18451704089297"/>
  <flow id="JF75285" begin="660" fromJunction="J4" toJunction="J0" end="720" vehsPerHour="123.24038899357814"/>
  <flow id="JF75286" begin="660" fromJunction="J2" toJunction="J3" end="720" vehsPerHour="86.55347281502245"/>
  <flow id="JF75287" begin="660" fromJunction="J2" toJunction="J0" end="720" vehsPerHour="57.85529552427043"/>
  <flow id="JF75288" begin="720" fromJunction="J3" toJunction="J0" end="780" vehsPerHour="85.02822479235554"/>
  <flow id="JF75289" begin="720" fromJunction="J0" toJunction="J3" end="780" vehsPerHour="394.5687600672967"/>
  <flow id="JF75290" begin="720" fromJunction="J3" toJunction="J4" end="780" vehsPerHour="9.127926918830013"/>
  <flow id="JF75291" begin="720" fromJunction="J3" toJunction="J2" end="780" vehsPerHour="38.07893553306158"/>
  <flow id="JF75292" begin="720" fromJunction="J0" toJunction="J4" end="780" vehsPerHour="41.493813621579655"/>
  <flow id="JF75293" begin="720" fromJunction="J0" toJunction="J2" end="780" vehsPerHour="65.33683213578087"/>
  <flow id="JF75294" begin="720" fromJunction="J4" toJunction="J2" end="780" vehsPerHour="20.000437784462246"/>
  <flow id="JF75295" begin="720" fromJunction="J2" toJunction="J4" end="780" vehsPerHour="129.72472915612897"/>
  <flow id="JF75296" begin="720" fromJunction="J4" toJunction="J3" end="780" vehsPerHour="65.4615893000661"/>
  <flow id="JF75297" begin="720" fromJunction="J4" toJunction="J0" end="780" vehsPerHour="19.909481418053815"/>
  <flow id="JF75298" begin="720" fromJunction="J2" toJunction="J3" end="780" vehsPerHour="95.95452908865877"/>
  <flow id="JF75299" begin="720" fromJunction="J2" toJunction="J0" end="780" vehsPerHour="84.46606613585536"/>
  <flow id="JF75300" begin="780" fromJunction="J3" toJunction="J0" end="840" vehsPerHour="480.62328440291776"/>
  <flow id="JF75301" begin="780" fromJunction="J0" toJunction="J3" end="840" vehsPerHour="273.2611542060634"/>
  <flow id="JF75302" begin="780" fromJunction="J3" toJunction="J4" end="840" vehsPerHour="130.526814668848"/>
  <flow id="JF75303" begin="780" fromJunction="J3" toJunction="J2" end="840" vehsPerHour="31.755410449800877"/>
  <flow id="JF75304" begin="780" fromJunction="J0" toJunction="J4" end="840" vehsPerHour="69.1515284140397"/>
  <flow id="JF75305" begin="780" fromJunction="J0" toJunction="J2" end="840" vehsPerHour="84.14057704952431"/>
  <flow id="JF75306" begin="780" fromJunction="J4" toJunction="J2" end="840" vehsPerHour="87.12113017571343"/>
  <flow id="JF75307" begin="780" fromJunction="J2" toJunction="J4" end="840" vehsPerHour="40.56062502868409"/>
  <flow id="JF75308" begin="780" fromJunction="J4" toJunction="J3" end="840" vehsPerHour="5.558059182514449"/>
  <flow id="JF75309" begin="780" fromJunction="J4" toJunction="J0" end="840" vehsPerHour="64.86302415732193"/>
  <flow id="JF75310" begin="780" fromJunction="J2" toJunction="J3" end="840" vehsPerHour="38.61402879331178"/>
  <flow id="JF75311" begin="780" fromJunction="J2" toJunction="J0" end="840" vehsPerHour="62.738549862257415"/>
  <flow id="JF75312" begin="840" fromJunction="J3" toJunction="J0" end="900" vehsPerHour="90.45932792808088"/>
  <flow id="JF75313" begin="840" fromJunction="J0" toJunction="J3" end="900" vehsPerHour="231.78004572478844"/>
  <flow id="JF75314" begin="840" fromJunction="J3" toJunction="J4" end="900" vehsPerHour="133.12170233441768"/>
  <flow id="JF75315" begin="840" fromJunction="J3" toJunction="J2" end="900" vehsPerHour="68.44676958830274"/>
  <flow id="JF75316" begin="840" fromJunction="J0" toJunction="J4" end="900" vehsPerHour="64.96555190735029"/>
  <flow id="JF75317" begin="840" fromJunction="J0" toJunction="J2" end="900" vehsPerHour="53.404612682580655"/>
  <flow id="JF75318" begin="840" fromJunction="J4" toJunction="J2" end="900" vehsPerHour="85.69149636455982"/>
  <flow id="JF75319" begin="840" fromJunction="J2" toJunction="J4" end="900" vehsPerHour="58.632848969759586"/>
  <flow id="JF75320" begin="840" fromJunction="J4" toJunction="J3" end="900" vehsPerHour="55.408647797984976"/>
  <flow id="JF75321" begin="840" fromJunction="J4" toJunction="J0" end="900" vehsPerHour="52.617200685976286"/>
  <flow id="JF75322" begin="840" fromJunction="J2" toJunction="J3" end="900" vehsPerHour="102.25930773365567"/>
  <flow id="JF75323" begin="840" fromJunction="J2" toJunction="J0" end="900" vehsPerHour="63.9035625701512"/>
  <flow id="JF75324" begin="900" fromJunction="J3" toJunction="J0" end="960" vehsPerHour="197.46288856727722"/>
  <flow id="JF75325" begin="900" fromJunction="J0" toJunction="J3" end="960" vehsPerHour="304.7520892345845"/>
  <flow id="JF75326" begin="900" fromJunction="J3" toJunction="J4" end="960" vehsPerHour="13.352375318334644"/>
  <flow id="JF75327" begin="900" fromJunction="J3" toJunction="J2" end="960" vehsPerHour="136.87933753846994"/>
  <flow id="JF75328" begin="900" fromJunction="J0" toJunction="J4" end="960" vehsPerHour="69.57900321265447"/>
  <flow id="JF75329" begin="900" fromJunction="J0" toJunction="J2" end="960" vehsPerHour="30.116925353951327"/>
  <flow id="JF75330" begin="960" fromJunction="J3" toJunction="J0" end="1020" vehsPerHour="296.76205715583075"/>
  <flow id="JF75331" begin="960" fromJunction="J0" toJunction="J3" end="1020" vehsPerHour="453.0422664111724"/>
  <flow id="JF75332" begin="960" fromJunction="J3" toJunction="J4" end="1020" vehsPerHour="54.036874230513405"/>
  <flow id="JF75333" begin="960" fromJunction="J3" toJunction="J2" end="1020" vehsPerHour="14.417757946523716"/>
  <flow id="JF75334" begin="960" fromJunction="J0" toJunction="J4" end="1020" vehsPerHour="2.050556201850459"/>
  <flow id="JF75335" begin="960" fromJunction="J0" toJunction="J2" end="1020" vehsPerHour="4.546571163968894"/>
  <flow id="JF75336" begin="1020" fromJunction="J3" toJunction="J0" end="1080" vehsPerHour="502.59983718043424"/>
  <flow id="JF75337" begin="1020" fromJunction="J0" toJunction="J3" end="1080" vehsPerHour="416.3745172617525"/>
  <flow id="JF75338" begin="1020" fromJunction="J3" toJunction="J4" end="1080" vehsPerHour="95.9270956145484"/>
  <flow id="JF75339" begin="1020" fromJunction="J3" toJunction="J2" end="1080" vehsPerHour="116.48638787240257"/>
  <flow id="JF75340" begin="1020" fromJunction="J0" toJunction="J4" end="1080" vehsPerHour="100.01221370129076"/>
  <flow id="JF75341" begin="1020" fromJunction="J0" toJunction="J2" end="1080" vehsPerHour="73.9486812303826"/>
  <flow id="JF75342" begin="1020" fromJunction="J4" toJunction="J2" end="1080" vehsPerHour="114.56164617253941"/>
  <flow id="JF75343" begin="1020" fromJunction="J2" toJunction="J4" end="1080" vehsPerHour="136.95764066350168"/>
  <flow id="JF75344" begin="1020" fromJunction="J4" toJunction="J3" end="1080" vehsPerHour="89.9653850242878"/>
  <flow id="JF75345" begin="1020" fromJunction="J4" toJunction="J0" end="1080" vehsPerHour="103.17313229526984"/>
  <flow id="JF75346" begin="1020" fromJunction="J2" toJunction="J3" end="1080" vehsPerHour="105.93081595784325"/>
  <flow id="JF75347" begin="1020" fromJunction="J2" toJunction="J0" end="1080" vehsPerHour="99.3799123824062"/>
  <flow id="JF75348" begin="1080" fromJunction="J3" toJunction="J0" end="1140" vehsPerHour="410.84298495741666"/>
  <flow id="JF75349" begin="1080" fromJunction="J0" toJunction="J3" end="1140" vehsPerHour="505.90460293265465"/>
  <flow id="JF75350" begin="1080" fromJunction="J3" toJunction="J4" end="1140" vehsPerHour="125.91196567756465"/>
  <flow id="JF75351" begin="1080" fromJunction="J3" toJunction="J2" end="1140" vehsPerHour="75.87870772409165"/>
  <flow id="JF75352" begin="1080" fromJunction="J0" toJunction="J4" end="1140" vehsPerHour="5.557926141948022"/>
  <flow id="JF75353" begin="1080" fromJunction="J0" toJunction="J2" end="1140" vehsPerHour="6.696552645860524"/>
  <flow id="JF75354" begin="1080" fromJunction="J4" toJunction="J2" end="1140" vehsPerHour="118.03196267257619"/>
  <flow id="JF75355" begin="1080" fromJunction="J2" toJunction="J4" end="1140" vehsPerHour="96.70759632503346"/>
  <flow id="JF75356" begin="1080" fromJunction="J4" toJunction="J3" end="1140" vehsPerHour="131.13694288422838"/>
  <flow id="JF75357" begin="1080" fromJunction="J4" toJunction="J0" end="1140" vehsPerHour="16.398751160986773"/>
  <flow id="JF75358" begin="1080" fromJunction="J2" toJunction="J3" end="1140" vehsPerHour="9.335818961133944"/>
  <flow id="JF75359" begin="1080" fromJunction="J2" toJunction="J0" end="1140" vehsPerHour="102.61119721151694"/>
  <flow id="JF75360" begin="1140" fromJunction="J3" toJunction="J0" end="1200" vehsPerHour="20.607266641473867"/>
  <flow id="JF75361" begin="1140" fromJunction="J0" toJunction="J3" end="1200" vehsPerHour="546.1763091181745"/>
  <flow id="JF75362" begin="1140" fromJunction="J3" toJunction="J4" end="1200" vehsPerHour="2.5084294767354987"/>
  <flow id="JF75363" begin="1140" fromJunction="J3" toJunction="J2" end="1200" vehsPerHour="118.84767916888966"/>
  <flow id="JF75364" begin="1140" fromJunction="J0" toJunction="J4" end="1200" vehsPerHour="78.543961965027"/>
  <flow id="JF75365" begin="1140" fromJunction="J0" toJunction="J2" end="1200" vehsPerHour="30.56922178103383"/>
  <flow id="JF75366" begin="1200" fromJunction="J3" toJunction="J0" end="1260" vehsPerHour="8.646134693789818"/>
  <flow id="JF75367" begin="1200" fromJunction="J0" toJunction="J3" end="1260" vehsPerHour="300.31107557548006"/>
  <flow id="JF75368" begin="1200" fromJunction="J3" toJunction="J4" end="1260" vehsPerHour="116.24910362961087"/>
  <flow id="JF75369" begin="1200" fromJunction="J3" toJunction="J2" end="1260" vehsPerHour="45.017098214772034"/>
  <flow id="JF75370" begin="1200" fromJunction="J0" toJunction="J4" end="1260" vehsPerHour="33.598794684997074"/>
  <flow id="JF75371" begin="1200" fromJunction="J0" toJunction="J2" end="1260" vehsPerHour="4.948993484613487"/>
  <flow id="JF75372" begin="1200" fromJunction="J4" toJunction="J2" end="1260" vehsPerHour="128.484041937441"/>
  <flow id="JF75373" begin="1200" fromJunction="J2" toJunction="J4" end="1260" vehsPerHour="59.96524420872372"/>
  <flow id="JF75374" begin="1200" fromJunction="J4" toJunction="J3" end="1260" vehsPerHour="114.79709710640324"/>
  <flow id="JF75375" begin="1200" fromJunction="J4" toJunction="J0" end="1260" vehsPerHour="128.35229058922735"/>
  <flow id="JF75376" begin="1200" fromJunction="J2" toJunction="J3" end="1260" vehsPerHour="84.61558947292333"/>
  <flow id="JF75377" begin="1200" fromJunction="J2" toJunction="J0" end="1260" vehsPerHour="20.87621734161796"/>
  <flow id="JF75378" begin="1260" fromJunction="J3" toJunction="J0" end="1320" vehsPerHour="524.3585674062373"/>
  <flow id="JF75379" begin="1260" fromJunction="J0" toJunction="J3" end="1320" vehsPerHour="278.6537554982502"/>
  <flow id="JF75380" begin="1260" fromJunction="J3" toJunction="J4" end="1320" vehsPerHour="73.78012283538457"/>
  <flow id="JF75381" begin="1260" fromJunction="J3" toJunction="J2" end="1320" vehsPerHour="104.7250106243182"/>
  <flow id="JF75382" begin="1260" fromJunction="J0" toJunction="J4" end="1320" vehsPerHour="30.31527218171003"/>
  <flow id="JF75383" begin="1260" fromJunction="J0" toJunction="J2" end="1320" vehsPerHour="112.25068199318798"/>
  <flow id="JF75384" begin="1260" fromJunction="J4" toJunction="J2" end="1320" vehsPerHour="116.38083518410019"/>
  <flow id="JF75385" begin="1260" fromJunction="J2" toJunction="J4" end="1320" vehsPerHour="56.82651759095801"/>
  <flow id="JF75386" begin="1260" fromJunction="J4" toJunction="J3" end="1320" vehsPerHour="117.08545402250667"/>
  <flow id="JF75387" begin="1260" fromJunction="J4" toJunction="J0" end="1320" vehsPerHour="77.92607010409233"/>
  <flow id="JF75388" begin="1260" fromJunction="J2" toJunction="J3" end="1320" vehsPerHour="75.51467500898772"/>
  <flow id="JF75389" begin="1260" fromJunction="J2" toJunction="J0" end="1320" vehsPerHour="65.33404622294788"/>
  <flow id="JF75390" begin="1320" fromJunction="J3" toJunction="J0" end="1380" vehsPerHour="27.010699280408485"/>
  <flow id="JF75391" begin="1320" fromJunction="J0" toJunction="J3" end="1380" vehsPerHour="472.9674361669086"/>
  <flow id="JF75392" begin="1320" fromJunction="J3" toJunction="J4" end="1380" vehsPerHour="41.40245557741208"/>
  <flow id="JF75393" begin="1320" fromJunction="J3" toJunction="J2" end="1380" vehsPerHour="121.2774813071123"/>
  <flow id="JF75394" begin="1320" fromJunction="J0" toJunction="J4" end="1380" vehsPerHour="44.41367746483802"/>
  <flow id="JF75395" begin="1320" fromJunction="J0" toJunction="J2" end="1380" vehsPerHour="63.049192742614345"/>
  <flow id="JF75396" begin="1320" fromJunction="J4" toJunction="J2" end="1380" vehsPerHour="86.99714257784255"/>
  <flow id="JF75397" begin="1320" fromJunction="J2" toJunction="J4" end="1380" vehsPerHour="6.020652078258044"/>
  <flow id="JF75398" begin="1320" fromJunction="J4" toJunction="J3" end="1380" vehsPerHour="5.0865410996494465"/>
  <flow id="JF75399" begin="1320" fromJunction="J4" toJunction="J0" end="1380" vehsPerHour="52.39051040250529"/>
  <flow id="JF75400" begin="1320" fromJunction="J2" toJunction="J3" end="1380" vehsPerHour="38.981781439979734"/>
  <flow id="JF75401" begin="1320" fromJunction="J2" toJunction="J0" end="1380" vehsPerHour="89.06293200693923"/>
  <flow id="JF75402" begin="1380" fromJunction="J3" toJunction="J0" end="1440" vehsPerHour="469.2209064805509"/>
  <flow id="JF75403" begin="1380" fromJunction="J0" toJunction="J3" end="1440" vehsPerHour="189.74674137443893"/>
  <flow id="JF75404" begin="1380" fromJunction="J3" toJunction="J4" end="1440" vehsPerHour="96.3006368945371"/>
  <flow id="JF75405" begin="1380" fromJunction="J3" toJunction="J2" end="1440" vehsPerHour="103.24655358964301"/>
  <flow id="JF75406" begin="1380" fromJunction="J0" toJunction="J4" end="1440" vehsPerHour="78.6843215382624"/>
  <flow id="JF75407" begin="1380" fromJunction="J0" toJunction="J2" end="1440" vehsPerHour="5.9836114948616075"/>
  <flow id="JF75408" begin="1380" fromJunction="J4" toJunction="J2" end="1440" vehsPerHour="45.6419466790551"/>
  <flow id="JF75409" begin="1380" fromJunction="J2" toJunction="J4" end="1440" vehsPerHour="41.544440834645414"/>
  <flow id="JF75410" begin="1380" fromJunction="J4" toJunction="J3" end="1440" vehsPerHour="126.80962064221492"/>
  <flow id="JF75411" begin="1380" fromJunction="J4" toJunction="J0" end="1440" vehsPerHour="38.75676373989461"/>
  <flow id="JF75412" begin="1380" fromJunction="J2" toJunction="J3" end="1440" vehsPerHour="100.84018432125576"/>
  <flow id="JF75413" begin="1380" fromJunction="J2" toJunction="J0" end="1440" vehsPerHour="67.86754154451984"/>
  <flow id="JF75414" begin="1440" fromJunction="J3" toJunction="J0" end="1500" vehsPerHour="8.449121380544451"/>
  <flow id="JF75415" begin="1440" fromJunction="J0" toJunction="J3" end="1500" vehsPerHour="370.4830800815852"/>
  <flow id="JF75416" begin="1440" fromJunction="J3" toJunction="J4" end="1500" vehsPerHour="64.69035288960164"/>
  <flow id="JF75417" begin="1440" fromJunction="J3" toJunction="J2" end="1500" vehsPerHour="107.24605084634261"/>
  <flow id="JF75418" begin="1440" fromJunction="J0" toJunction="J4" end="1500" vehsPerHour="113.61121168649576"/>
  <flow id="JF75419" begin="1440" fromJunction="J0" toJunction="J2" end="1500" vehsPerHour="17.623943445713845"/>
  <flow id="JF75420" begin="1440" fromJunction="J4" toJunction="J2" end="1500" vehsPerHour="18.150658606373668"/>
  <flow id="JF75421" begin="1440" fromJunction="J2" toJunction="J4" end="1500" vehsPerHour="44.575758642624855"/>
  <flow id="JF75422" begin="1440" fromJunction="J4" toJunction="J3" end="1500" vehsPerHour="32.79084383469002"/>
  <flow id="JF75423" begin="1440" fromJunction="J4" toJunction="J0" end="1500" vehsPerHour="48.40803383655697"/>
  <flow id="JF75424" begin="1440" fromJunction="J2" toJunction="J3" end="1500" vehsPerHour="101.95301649346673"/>
  <flow id="JF75425" begin="1440" fromJunction="J2" toJunction="J0" end="1500" vehsPerHour="10.461185363555753"/>
  <flow id="JF75426" begin="1500" fromJunction="J3" toJunction="J0" end="1560" vehsPerHour="161.97907246633892"/>
  <flow id="JF75427" begin="1500" fromJunction="J0" toJunction="J3" end="1560" vehsPerHour="219.31189430656156"/>
  <flow id="JF75428" begin="1500" fromJunction="J3" toJunction="J4" end="1560" vehsPerHour="56.994426397951834"/>
  <flow id="JF75429" begin="1500" fromJunction="J3" toJunction="J2" end="1560" vehsPerHour="3.164365724830833"/>
  <flow id="JF75430" begin="1500" fromJunction="J0" toJunction="J4" end="1560" vehsPerHour="82.53750213806785"/>
  <flow id="JF75431" begin="1500" fromJunction="J0" toJunction="J2" end="1560" vehsPerHour="58.56759347912988"/>
  <flow id="JF75432" begin="1500" fromJunction="J4" toJunction="J2" end="1560" vehsPerHour="5.744227812264357"/>
  <flow id="JF75433" begin="1500" fromJunction="J2" toJunction="J4" end="1560" vehsPerHour="27.868324017348343"/>