<?xml version="1.0" encoding="UTF-8"?>
<routes xmlns:xsi="http://www.w3.org/2001/XMLSchema-instance" xsi:noNamespaceSchemaLocation="http://sumo.dlr.de/xsd/routes_file.xsd">
  <flow id="JF79812" begin="0" fromJunction="J3" toJunction="J0" end="60" vehsPerHour="253.59969208812257"/>
  <flow id="JF79813" begin="0" fromJunction="J0" toJunction="J3" end="60" vehsPerHour="172.85741254205988"/>
  <flow id="JF79814" begin="0" fromJunction="J3" toJunction="J4" end="60" vehsPerHour="34.932978539477126"/>
  <flow id="JF79815" begin="0" fromJunction="J3" toJunction="J2" end="60" vehsPerHour="15.383565610366347"/>
  <flow id="JF79816" begin="0" fromJunction="J0" toJunction="J4" end="60" vehsPerHour="126.53466827407445"/>
  <flow id="JF79817" begin="0" fromJunction="J0" toJunction="J2" end="60" vehsPerHour="37.23971649182671"/>
  <flow id="JF79818" begin="0" fromJunction="J4" toJunction="J2" end="60" vehsPerHour="18.798609845326173"/>
  <flow id="JF79819" begin="0" fromJunction="J2" toJunction="J4" end="60" vehsPerHour="84.18246471417744"/>
  <flow id="JF79820" begin="0" fromJunction="J4" toJunction="J3" end="60" vehsPerHour="126.56869097892216"/>
  <flow id="JF79821" begin="0" fromJunction="J4" toJunction="J0" end="60" vehsPerHour="27.69360198273557"/>
  <flow id="JF79822" begin="0" fromJunction="J2" toJunction="J3" end="60" vehsPerHour="122.90239979238608"/>
  <flow id="JF79823" begin="0" fromJunction="J2" toJunction="J0" end="60" vehsPerHour="71.8597463913302"/>
  <flow id="JF79824" begin="60" fromJunction="J3" toJunction="J0" end="120" vehsPerHour="71.27267677620007"/>
  <flow id="JF79825" begin="60" fromJunction="J0" toJunction="J3" end="120" vehsPerHour="529.5957995124227"/>
  <flow id="JF79826" begin="60" fromJunction="J3" toJunction="J4" end="120" vehsPerHour="68.0189621362956"/>
  <flow id="JF79827" begin="60" fromJunction="J3" toJunction="J2" end="120" vehsPerHour="40.46004175000612"/>
  <flow id="JF79828" begin="60" fromJunction="J0" toJunction="J4" end="120" vehsPerHour="14.908222040764318"/>
  <flow id="JF79829" begin="60" fromJunction="J0" toJunction="J2" end="120" vehsPerHour="107.62709717235931"/>
  <flow id="JF79830" begin="120" fromJunction="J3" toJunction="J0" end="180" vehsPerHour="288.4081316630875"/>
  <flow id="JF79831" begin="120" fromJunction="J0" toJunction="J3" end="180" vehsPerHour="203.73304792329068"/>
  <flow id="JF79832" begin="120" fromJunction="J3" toJunction="J4" end="180" vehsPerHour="77.71348106543208"/>
  <flow id="JF79833" begin="120" fromJunction="J3" toJunction="J2" end="180" vehsPerHour="44.35113269366838"/>
  <flow id="JF79834" begin="120" fromJunction="J0" toJunction="J4" end="180" vehsPerHour="130.31203654139424"/>
  <flow id="JF79835" begin="120" fromJunction="J0" toJunction="J2" end="180" vehsPerHour="106.60536132428965"/>
  <flow id="JF79836" begin="120" fromJunction="J4" toJunction="J2" end="180" vehsPerHour="89.19038041871435"/>
  <flow id="JF79837" begin="120" fromJunction="J2" toJunction="J4" end="180" vehsPerHour="119.49462042650707"/>
  <flow id="JF79838" begin="120" fromJunction="J4" toJunction="J3" end="180" vehsPerHour="108.58785641605135"/>
  <flow id="JF79839" begin="120" fromJunction="J4" toJunction="J0" end="180" vehsPerHour="39.13436307995177"/>
  <flow id="JF79840" begin="120" fromJunction="J2" toJunction="J3" end="180" vehsPerHour="14.851576565005635"/>
  <flow id="JF79841" begin="120" fromJunction="J2" toJunction="J0" end="180" vehsPerHour="113.45785613674751"/>
  <flow id="JF79842" begin="180" fromJunction="J3" toJunction="J0" end="240" vehsPerHour="193.08406967732066"/>
  <flow id="JF79843" begin="180" fromJunction="J0" toJunction="J3" end="240" vehsPerHour="492.96494346920116"/>
  <flow id="JF79844" begin="180" fromJunction="J3" toJunction="J4" end="240" vehsPerHour="135.29472356959076"/>
  <flow id="JF79845" begin="180" fromJunction="J3" toJunction="J2" end="240" vehsPerHour="46.57283406250177"/>
  <flow id="JF79846" begin="180" fromJunction="J0" toJunction="J4" end="240" vehsPerHour="66.19599454725875"/>
  <flow id="JF79847" begin="180" fromJunction="J0" toJunction="J2" end="240" vehsPerHour="11.319920319909782"/>
  <flow id="JF79848" begin="240" fromJunction="J3" toJunction="J0" end="300" vehsPerHour="208.36790528276902"/>
  <flow id="JF79849" begin="240" fromJunction="J0" toJunction="J3" end="300" vehsPerHour="25.99581584831206"/>
  <flow id="JF79850" begin="240" fromJunction="J3" toJunction="J4" end="300" vehsPerHour="63.542326128810835"/>
  <flow id="JF79851" begin="240" fromJunction="J3" toJunction="J2" end="300" vehsPerHour="125.10466677615408"/>
  <flow id="JF79852" begin="240" fromJunction="J0" toJunction="J4" end="300" vehsPerHour="91.24562953060426"/>
  <flow id="JF79853" begin="240" fromJunction="J0" toJunction="J2" end="300" vehsPerHour="116.53145190544579"/>
  <flow id="JF79854" begin="300" fromJunction="J3" toJunction="J0" end="360" vehsPerHour="338.9241276635441"/>
  <flow id="JF79855" begin="300" fromJunction="J0" toJunction="J3" end="360" vehsPerHour="476.45948204676785"/>
  <flow id="JF79856" begin="300" fromJunction="J3" toJunction="J4" end="360" vehsPerHour="92.50588092529719"/>
  <flow id="JF79857" begin="300" fromJunction="J3" toJunction="J2" end="360" vehsPerHour="52.63757656182591"/>
  <flow id="JF79858" begin="300" fromJunction="J0" toJunction="J4" end="360" vehsPerHour="136.9219103614505"/>
  <flow id="JF79859" begin="300" fromJunction="J0" toJunction="J2" end="360" vehsPerHour="117.96518564787385"/>
  <flow id="JF79860" begin="300" fromJunction="J4" toJunction="J2" end="360" vehsPerHour="54.66096878402448"/>
  <flow id="JF79861" begin="300" fromJunction="J2" toJunction="J4" end="360" vehsPerHour="75.91314930629638"/>
  <flow id="JF79862" begin="300" fromJunction="J4" toJunction="J3" end="360" vehsPerHour="127.26979844486867"/>
  <flow id="JF79863" begin="300" fromJunction="J4" toJunction="J0" end="360" vehsPerHour="93.98088761308627"/>
  <flow id="JF79864" begin="300" fromJunction="J2" toJunction="J3" end="360" vehsPerHour="100.155356286715"/>
  <flow id="JF79865" begin="300" fromJunction="J2" toJunction="J0" end="360" vehsPerHour="113.34107269830373"/>
  <flow id="JF79866" begin="360" fromJunction="J3" toJunction="J0" end="420" vehsPerHour="193.57896622044393"/>
  <flow id="JF79867" begin="360" fromJunction="J0" toJunction="J3" end="420" vehsPerHour="86.36509803230726"/>
  <flow id="JF79868" begin="360" fromJunction="J3" toJunction="J4" end="420" vehsPerHour="16.002529461363526"/>
  <flow id="JF79869" begin="360" fromJunction="J3" toJunction="J2" end="420" vehsPerHour="53.33800060351551"/>
  <flow id="JF79870" begin="360" fromJunction="J0" toJunction="J4" end="420" vehsPerHour="135.88618515292222"/>
  <flow id="JF79871" begin="360" fromJunction="J0" toJunction="J2" end="420" vehsPerHour="17.47902353610353"/>
  <flow id="JF79872" begin="360" fromJunction="J4" toJunction="J2" end="420" vehsPerHour="60.242678864818174"/>
  <flow id="JF79873" begin="360" fromJunction="J2" toJunction="J4" end="420" vehsPerHour="37.061865356233504"/>
  <flow id="JF79874" begin="360" fromJunction="J4" toJunction="J3" end="420" vehsPerHour="29.06829824548429"/>
  <flow id="JF79875" begin="360" fromJunction="J4" toJunction="J0" end="420" vehsPerHour="72.63892929770887"/>
  <flow id="JF79876" begin="360" fromJunction="J2" toJunction="J3" end="420" vehsPerHour="2.4977690754146025"/>
  <flow id="JF79877" begin="360" fromJunction="J2" toJunction="J0" end="420" vehsPerHour="88.81842407375868"/>
  <flow id="JF79878" begin="420" fromJunction="J3" toJunction="J0" end="480" vehsPerHour="53.175628274307854"/>
  <flow id="JF79879" begin="420" fromJunction="J0" toJunction="J3" end="480" vehsPerHour="330.43256888189705"/>
  <flow id="JF79880" begin="420" fromJunction="J3" toJunction="J4" end="480" vehsPerHour="101.33053793004576"/>
  <flow id="JF79881" begin="420" fromJunction="J3" toJunction="J2" end="480" vehsPerHour="22.024786271669004"/>
  <flow id="JF79882" begin="420" fromJunction="J0" toJunction="J4" end="480" vehsPerHour="93.06475353899636"/>
  <flow id="JF79883" begin="420" fromJunction="J0" toJunction="J2" end="480" vehsPerHour="75.255952137626"/>
  <flow id="JF79884" begin="420" fromJunction="J4" toJunction="J2" end="480" vehsPerHour="70.01573929389286"/>
  <flow id="JF79885" begin="420" fromJunction="J2" toJunction="J4" end="480" vehsPerHour="131.8559772618668"/>
  <flow id="JF79886" begin="420" fromJunction="J4" toJunction="J3" end="480" vehsPerHour="62.07670975354263"/>
  <flow id="JF79887" begin="420" fromJunction="J4" toJunction="J0" end="480" vehsPerHour="79.0592513910673"/>
  <flow id="JF79888" begin="420" fromJunction="J2" toJunction="J3" end="480" vehsPerHour="23.062535709427394"/>
  <flow id="JF79889" begin="420" fromJunction="J2" toJunction="J0" end="480" vehsPerHour="120.26351894427805"/>
  <flow id="JF79890" begin="480" fromJunction="J3" toJunction="J0" end="540" vehsPerHour="373.3782562356153"/>
  <flow id="JF79891" begin="480" fromJunction="J0" toJunction="J3" end="540" vehsPerHour="241.34035721301652"/>
  <flow id="JF79892" begin="480" fromJunction="J3" toJunction="J4" end="540" vehsPerHour="52.9142794608369"/>
  <flow id="JF79893" begin="480" fromJunction="J3" toJunction="J2" end="540" vehsPerHour="136.59138260867914"/>
  <flow id="JF79894" begin="480" fromJunction="J0" toJunction="J4" end="540" vehsPerHour="54.31278602676844"/>
  <flow id="JF79895" begin="480" fromJunction="J0" toJunction="J2" end="540" vehsPerHour="33.34209130321108"/>
  <flow id="JF79896" begin="480" fromJunction="J4" toJunction="J2" end="540" vehsPerHour="109.9368977446257"/>
  <flow id="JF79897" begin="480" fromJunction="J2" toJunction="J4" end="540" vehsPerHour="23.226660390400255"/>
  <flow id="JF79898" begin="480" fromJunction="J4" toJunction="J3" end="540" vehsPerHour="6.468294927319774"/>
  <flow id="JF79899" begin="480" fromJunction="J4" toJunction="J0" end="540" vehsPerHour="84.57903803110224"/>
  <flow id="JF79900" begin="480" fromJunction="J2" toJunction="J3" end="540" vehsPerHour="60.73148646241959"/>
  <flow id="JF79901" begin="480" fromJunction="J2" toJunction="J0" end="540" vehsPerHour="103.16241166066762"/>
  <flow id="JF79902" begin="540" fromJunction="J3" toJunction="J0" end="600" vehsPerHour="29.61411952086342"/>
  <flow id="JF79903" begin="540" fromJunction="J0" toJunction="J3" end="600" vehsPerHour="391.3809568653603"/>
  <flow id="JF79904" begin="540" fromJunction="J3" toJunction="J4" end="600" vehsPerHour="71.11370297818759"/>
  <flow id="JF79905" begin="540" fromJunction="J3" toJunction="J2" end="600" vehsPerHour="0.9985675074474182"/>
  <flow id="JF79906" begin="540" fromJunction="J0" toJunction="J4" end="600" vehsPerHour="13.499525263192012"/>
  <flow id="JF79907" begin="540" fromJunction="J0" toJunction="J2" end="600" vehsPerHour="4.972903184305875"/>
  <flow id="JF79908" begin="540" fromJunction="J4" toJunction="J2" end="600" vehsPerHour="34.83225269993516"/>
  <flow id="JF79909" begin="540" fromJunction="J2" toJunction="J4" end="600" vehsPerHour="55.79497332449767"/>
  <flow id="JF79910" begin="540" fromJunction="J4" toJunction="J3" end="600" vehsPerHour="104.21592845600188"/>
  <flow id="JF79911" begin="540" fromJunction="J4" toJunction="J0" end="600" vehsPerHour="41.6262703064463"/>
  <flow id="JF79912" begin="540" fromJunction="J2" toJunction="J3" end="600" vehsPerHour="49.16242986974084"/>
  <flow id="JF79913" begin="540" fromJunction="J2" toJunction="J0" end="600" vehsPerHour="36.40633916516541"/>
  <flow id="JF79914" begin="600" fromJunction="J3" toJunction="J0" end="660" vehsPerHour="406.169785794813"/>
  <flow id="JF79915" begin="600" fromJunction="J0" toJunction="J3" end="660" vehsPerHour="133.0971340982135"/>
  <flow id="JF79916" begin="600" fromJunction="J3" toJunction="J4" end="660" vehsPerHour="40.0684725860336"/>
  <flow id="JF79917" begin="600" fromJunction="J3" toJunction="J2" end="660" vehsPerHour="107.89446771824619"/>
  <flow id="JF79918" begin="600" fromJunction="J0" toJunction="J4" end="660" vehsPerHour="90.954159954908"/>
  <flow id="JF79919" begin="600" fromJunction="J0" toJunction="J2" end="660" vehsPerHour="41.21344193997234"/>
  <flow id="JF79920" begin="600" fromJunction="J4" toJunction="J2" end="660" vehsPerHour="74.76999436131156"/>
  <flow id="JF79921" begin="600" fromJunction="J2" toJunction="J4" end="660" vehsPerHour="90.55753103690256"/>
  <flow id="JF79922" begin="600" fromJunction="J4" toJunction="J3" end="660" vehsPerHour="34.412599504509274"/>
  <flow id="JF79923" begin="600" fromJunction="J4" toJunction="J0" end="660" vehsPerHour="68.64543818833934"/>
  <flow id="JF79924" begin="600" fromJunction="J2" toJunction="J3" end="660" vehsPerHour="17.012483689365993"/>
  <flow id="JF79925" begin="600" fromJunction="J2" toJunction="J0" end="660" vehsPerHour="84.98208269232791"/>
  <flow id="JF79926" begin="660" fromJunction="J3" toJunction="J0" end="720" vehsPerHour="467.56354724449994"/>
  <flow id="JF79927" begin="660" fromJunction="J0" toJunction="J3" end="720" vehsPerHour="477.1945355208374"/>
  <flow id="JF79928" begin="660" fromJunction="J3" toJunction="J4" end="720" vehsPerHour="131.44006389795163"/>
  <flow id="JF79929" begin="660" fromJunction="J3" toJunction="J2" end="720" vehsPerHour="21.768454136080063"/>
  <flow id="JF79930" begin="660" fromJunction="J0" toJunction="J4" end="720" vehsPerHour="104.06138898827052"/>
  <flow id="JF79931" begin="660" fromJunction="J0" toJunction="J2" end="720" vehsPerHour="33.83313093055736"/>
  <flow id="JF79932" begin="720" fromJunction="J3" toJunction="J0" end="780" vehsPerHour="325.17650048101365"/>
  <flow id="JF79933" begin="720" fromJunction="J0" toJunction="J3" end="780" vehsPerHour="379.77458184890924"/>
  <flow id="JF79934" begin="720" fromJunction="J3" toJunction="J4" end="780" vehsPerHour="47.53578007901544"/>
  <flow id="JF79935" begin="720" fromJunction="J3" toJunction="J2" end="780" vehsPerHour="12.38310519067118"/>
  <flow id="JF79936" begin="720" fromJunction="J0" toJunction="J4" end="780" vehsPerHour="67.8094875244598"/>
  <flow id="JF79937" begin="720" fromJunction="J0" toJunction="J2" end="780" vehsPerHour="22.47406701313987"/>
  <flow id="JF79938" begin="720" fromJunction="J4" toJunction="J2" end="780" vehsPerHour="46.25316821645174"/>
  <flow id="JF79939" begin="720" fromJunction="J2" toJunction="J4" end="780" vehsPerHour="96.47666811657564"/>
  <flow id="JF79940" begin="720" fromJunction="J4" toJunction="J3" end="780" vehsPerHour="40.07776280582139"/>
  <flow id="JF79941" begin="720" fromJunction="J4" toJunction="J0" end="780" vehsPerHour="48.19992784663772"/>
  <flow id="JF79942" begin="720" fromJunction="J2" toJunction="J3" end="780" vehsPerHour="135.70054062142268"/>
  <flow id="JF79943" begin="720" fromJunction="J2" toJunction="J0" end="780" vehsPerHour="94.09764629671673"/>
  <flow id="JF79944" begin="780" fromJunction="J3" toJunction="J0" end="840" vehsPerHour="14.971515822253231"/>
  <flow id="JF79945" begin="780" fromJunction="J0" toJunction="J3" end="840" vehsPerHour="355.9842023984235"/>
  <flow id="JF79946" begin="780" fromJunction="J3" toJunction="J4" end="840" vehsPerHour="18.473014517088234"/>
  <flow id="JF79947" begin="780" fromJunction="J3" toJunction="J2" end="840" vehsPerHour="28.68788095361648"/>
  <flow id="JF79948" begin="780" fromJunction="J0" toJunction="J4" end="840" vehsPerHour="37.95464260394089"/>
  <flow id="JF79949" begin="780" fromJunction="J0" toJunction="J2" end="840" vehsPerHour="48.67139299374448"/>
  <flow id="JF79950" begin="780" fromJunction="J4" toJunction="J2" end="840" vehsPerHour="29.41193515208904"/>
  <flow id="JF79951" begin="780" fromJunction="J2" toJunction="J4" end="840" vehsPerHour="69.54920949840974"/>
  <flow id="JF79952" begin="780" fromJunction="J4" toJunction="J3" end="840" vehsPerHour="120.47922753817177"/>
  <flow id="JF79953" begin="780" fromJunction="J4" toJunction="J0" end="840" vehsPerHour="115.5681329695051"/>
  <flow id="JF79954" begin="780" fromJunction="J2" toJunction="J3" end="840" vehsPerHour="104.08236492905026"/>
  <flow id="JF79955" begin="780" fromJunction="J2" toJunction="J0" end="840" vehsPerHour="121.356078504668"/>
  <flow id="JF79956" begin="840" fromJunction="J3" toJunction="J0" end="900" vehsPerHour="185.51426756835338"/>
  <flow id="JF79957" begin="840" fromJunction="J0" toJunction="J3" end="900" vehsPerHour="497.1140068658541"/>
  <flow id="JF79958" begin="840" fromJunction="J3" toJunction="J4" end="900" vehsPerHour="126.3597477348"/>
  <flow id="JF79959" begin="840" fromJunction="J3" toJunction="J2" end="900" vehsPerHour="37.909248279350365"/>
  <flow id="JF79960" begin="840" fromJunction="J0" toJunction="J4" end="900" vehsPerHour="81.47626338185285"/>
  <flow id="JF79961" begin="840" fromJunction="J0" toJunction="J2" end="900" vehsPerHour="57.141426283439706"/>
  <flow id="JF79962" begin="900" fromJunction="J3" toJunction="J0" end="960" vehsPerHour="232.94806986701988"/>
  <flow id="JF79963" begin="900" fromJunction="J0" toJunction="J3" end="960" vehsPerHour="115.9235498325615"/>
  <flow id="JF79964" begin="900" fromJunction="J3" toJunction="J4" end="960" vehsPerHour="100.50863952204583"/>
  <flow id="JF79965" begin="900" fromJunction="J3" toJunction="J2" end="960" vehsPerHour="132.37201968156478"/>
  <flow id="JF79966" begin="900" fromJunction="J0" toJunction="J4" end="960" vehsPerHour="51.5594373056806"/>
  <flow id="JF79967" begin="900" fromJunction="J0" toJunction="J2" end="960" vehsPerHour="35.61526034588055"/>
  <flow id="JF79968" begin="900" fromJunction="J4" toJunction="J2" end="960" vehsPerHour="87.75653591901848"/>
  <flow id="JF79969" begin="900" fromJunction="J2" toJunction="J4" end="960" vehsPerHour="85.93306135676166"/>
  <flow id="JF79970" begin="900" fromJunction="J4" toJunction="J3" end="960" vehsPerHour="12.237725420439919"/>
  <flow id="JF79971" begin="900" fromJunction="J4" toJunction="J0" end="960" vehsPerHour="127.94393756318564"/>
  <flow id="JF79972" begin="900" fromJunction="J2" toJunction="J3" end="960" vehsPerHour="16.193130358268633"/>
  <flow id="JF79973" begin="900" fromJunction="J2" toJunction="J0" end="960" vehsPerHour="116.50618020875444"/>
  <flow id="JF79974" begin="960" fromJunction="J3" toJunction="J0" end="1020" vehsPerHour="378.06640351391064"/>
  <flow id="JF79975" begin="960" fromJunction="J0" toJunction="J3" end="1020" vehsPerHour="289.01831433574415"/>
  <flow id="JF79976" begin="960" fromJunction="J3" toJunction="J4" end="1020" vehsPerHour="127.2814749200678"/>
  <flow id="JF79977" begin="960" fromJunction="J3" toJunction="J2" end="1020" vehsPerHour="99.16232513594143"/>
  <flow id="JF79978" begin="960" fromJunction="J0" toJunction="J4" end="1020" vehsPerHour="97.26891179713294"/>
  <flow id="JF79979" begin="960" fromJunction="J0" toJunction="J2" end="1020" vehsPerHour="90.7126341184046"/>
  <flow id="JF79980" begin="960" fromJunction="J4" toJunction="J2" end="1020" vehsPerHour="60.32984564373922"/>
  <flow id="JF79981" begin="960" fromJunction="J2" toJunction="J4" end="1020" vehsPerHour="53.66617206613626"/>
  <flow id="JF79982" begin="960" fromJunction="J4" toJunction="J3" end="1020" vehsPerHour="65.65743881783482"/>
  <flow id="JF79983" begin="960" fromJunction="J4" toJunction="J0" end="1020" vehsPerHour="9.282168481688519"/>
  <flow id="JF79984" begin="960" fromJunction="J2" toJunction="J3" end="1020" vehsPerHour="32.52719713930718"/>
  <flow id="JF79985" begin="960" fromJunction="J2" toJunction="J0" end="1020" vehsPerHour="92.15590183953935"/>
  <flow id="JF79986" begin="1020" fromJunction="J3" toJunction="J0" end="1080" vehsPerHour="163.190694100684"/>
  <flow id="JF79987" begin="1020" fromJunction="J0" toJunction="J3" end="1080" vehsPerHour="401.09897484275416"/>
  <flow id="JF79988" begin="1020" fromJunction="J3" toJunction="J4" end="1080" vehsPerHour="89.08378114026532"/>
  <flow id="JF79989" begin="1020" fromJunction="J3" toJunction="J2" end="1080" vehsPerHour="29.310101985221685"/>
  <flow id="JF79990" begin="1020" fromJunction="J0" toJunction="J4" end="1080" vehsPerHour="35.57244242604976"/>
  <flow id="JF79991" begin="1020" fromJunction="J0" toJunction="J2" end="1080" vehsPerHour="122.03372369580963"/>
  <flow id="JF79992" begin="1020" fromJunction="J4" toJunction="J2" end="1080" vehsPerHour="67.06926393250845"/>
  <flow id="JF79993" begin="1020" fromJunction="J2" toJunction="J4" end="1080" vehsPerHour="30.33487293864009"/>
  <flow id="JF79994" begin="1020" fromJunction="J4" toJunction="J3" end="1080" vehsPerHour="11.724662859639283"/>
  <flow id="JF79995" begin="1020" fromJunction="J4" toJunction="J0" end="1080" vehsPerHour="99.68381124728602"/>
  <flow id="JF79996" begin="1020" fromJunction="J2" toJunction="J3" end="1080" vehsPerHour="18.864841720531846"/>
  <flow id="JF79997" begin="1020" fromJunction="J2" toJunction="J0" end="1080" vehsPerHour="131.89558544910307"/>
  <flow id="JF79998" begin="1080" fromJunction="J3" toJunction="J0" end="1140" vehsPerHour="323.22347320389275"/>
  <flow id="JF79999" begin="1080" fromJunction="J0" toJunction="J3" end="1140" vehsPerHour="30.61852199119867"/>
  <flow id="JF80000" begin="1080" fromJunction="J3" toJunction="J4" end="1140" vehsPerHour="31.748431527063175"/>
  <flow id="JF80001" begin="1080" fromJunction="J3" toJunction="J2" end="1140" vehsPerHour="76.91978953255293"/>
  <flow id="JF80002" begin="1080" fromJunction="J0" toJunction="J4" end="1140" vehsPerHour="33.91654536777531"/>
  <flow id="JF80003" begin="1080" fromJunction="J0" toJunction="J2" end="1140" vehsPerHour="88.46190996076437"/>
  <flow id="JF80004" begin="1080" fromJunction="J4" toJunction="J2" end="1140" vehsPerHour="27.745290839419308"/>
  <flow id="JF80005" begin="1080" fromJunction="J2" toJunction="J4" end="1140" vehsPerHour="26.164802745417653"/>
  <flow id="JF80006" begin="1080" fromJunction="J4" toJunction="J3" end="1140" vehsPerHour="42.659543236392885"/>
  <flow id="JF80007" begin="1080" fromJunction="J4" toJunction="J0" end="1140" vehsPerHour="100.98885247694257"/>
  <flow id="JF80008" begin="1080" fromJunction="J2" toJunction="J3" end="1140" vehsPerHour="59.557764599272936"/>
  <flow id="JF80009" begin="1080" fromJunction="J2" toJunction="J0" end="1140" vehsPerHour="30.95099664753183"/>
  <flow id="JF80010" begin="1140" fromJunction="J3" toJunction="J0" end="1200" vehsPerHour="169.76294108758145"/>
  <flow id="JF80011" begin="1140" fromJunction="J0" toJunction="J3" end="1200" vehsPerHour="196.52832302258966"/>
  <flow id="JF80012" begin="1140" fromJunction="J3" toJunction="J4" end="1200" vehsPerHour="82.58512359809679"/>
  <flow id="JF80013" begin="1140" fromJunction="J3" toJunction="J2" end="1200" vehsPerHour="53.694079150351115"/>
  <flow id="JF80014" begin="1140" fromJunction="J0" toJunction="J4" end="1200" vehsPerHour="97.29261711532587"/>
  <flow id="JF80015" begin="1140" fromJunction="J0" toJunction="J2" end="1200" vehsPerHour="10.456107338063681"/>
  <flow id="JF80016" begin="1200" fromJunction="J3" toJunction="J0" end="1260" vehsPerHour="523.0656923811077"/>
  <flow id="JF80017" begin="1200" fromJunction="J0" toJunction="J3" end="1260" vehsPerHour="267.56186850413707"/>
  <flow id="JF80018" begin="1200" fromJunction="J3" toJunction="J4" end="1260" vehsPerHour="67.50162984281957"/>
  <flow id="JF80019" begin="1200" fromJunction="J3" toJunction="J2" end="1260" vehsPerHour="97.74044518096035"/>
  <flow id="JF80020" begin="1200" fromJunction="J0" toJunction="J4" end="1260" vehsPerHour="103.26712545984806"/>
  <flow id="JF80021" begin="1200" fromJunction="J0" toJunction="J2" end="1260" vehsPerHour="71.91841230071748"/>
  <flow id="JF80022" begin="1260" fromJunction="J3" toJunction="J0" end="1320" vehsPerHour="370.0218141517521"/>
  <flow id="JF80023" begin="1260" fromJunction="J0" toJunction="J3" end="1320" vehsPerHour="273.63044742474307"/>
  <flow id="JF80024" begin="1260" fromJunction="J3" toJunction="J4" end="1320" vehsPerHour="23.686879116114955"/>
  <flow id="JF80025" begin="1260" fromJunction="J3" toJunction="J2" end="1320" vehsPerHour="26.36153376035194"/>
  <flow id="JF80026" begin="1260" fromJunction="J0" toJunction="J4" end="1320" vehsPerHour="57.147737146172915"/>
  <flow id="JF80027" begin="1260" fromJunction="J0" toJunction="J2" end="1320" vehsPerHour="1.152026862398893"/>
  <flow id="JF80028" begin="1260" fromJunction="J4" toJunction="J2" end="1320" vehsPerHour="114.13162576244042"/>
  <flow id="JF80029" begin="1260" fromJunction="J2" toJunction="J4" end="1320" vehsPerHour="89.77387007712706"/>
  <flow id="JF80030" begin="1260" fromJunction="J4" toJunction="J3" end="1320" vehsPerHour="51.036597063429404"/>
  <flow id="JF80031" begin="1260" fromJunction="J4" toJunction="J0" end="1320" vehsPerHour="19.134793099572793"/>
  <flow id="JF80032" begin="1260" fromJunction="J2" toJunction="J3" end="1320" vehsPerHour="100.24442434000562"/>
  <flow id="JF80033" begin="1260" fromJunction="J2" toJunction="J0" end="1320" vehsPerHour="38.70371414934881"/>
  <flow id="JF80034" begin="1320" fromJunction="J3" toJunction="J0" end="1380" vehsPerHour="446.7473807562288"/>
  <flow id="JF80035" begin="1320" fromJunction="J0" toJunction="J3" end="1380" vehsPerHour="187.77641533592652"/>
  <flow id="JF80036" begin="1320" fromJunction="J3" toJunction="J4" end="1380" vehsPerHour="11.837557955974688"/>
  <flow id="JF80037" begin="1320" fromJunction="J3" toJunction="J2" end="1380" vehsPerHour="74.9211603932418"/>
  <flow id="JF80038" begin="1320" fromJunction="J0" toJunction="J4" end="1380" vehsPerHour="25.15103773636592"/>
  <flow id="JF80039" begin="1320" fromJunction="J0" toJunction="J2" end="1380" vehsPerHour="48.584686785936135"/>
  <flow id="JF80040" begin="1320" fromJunction="J4" toJunction="J2" end="1380" vehsPerHour="129.203626189865"/>
  <flow id="JF80041" begin="1320" fromJunction="J2" toJunction="J4" end="1380" vehsPerHour="46.30630184026613"/>
  <flow id="JF80042" begin="1320" fromJunction="J4" toJunction="J3" end="1380" vehsPerHour="127.54807307720928"/>
  <flow id="JF80043" begin="1320" fromJunction="J4" toJunction="J0" end="1380" vehsPerHour="29.81460357670223"/>
  <flow id="JF80044" begin="1320" fromJunction="J2" toJunction="J3" end="1380" vehsPerHour="15.819025170438966"/>
  <flow id="JF80045" begin="1320" fromJunction="J2" toJunction="J0" end="1380" vehsPerHour="106.24666566234409"/>
  <flow id="JF80046" begin="1380" fromJunction="J3" toJunction="J0" end="1440" vehsPerHour="45.59106079583918"/>
  <flow id="JF80047" begin="1380" fromJunction="J0" toJunction="J3" end="1440" vehsPerHour="394.201814818189"/>
  <flow id="JF80048" begin="1380" fromJunction="J3" toJunction="J4" end="1440" vehsPerHour="13.245811196604382"/>
  <flow id="JF80049" begin="1380" fromJunction="J3" toJunction="J2" end="1440" vehsPerHour="130.871745863187"/>
  <flow id="JF80050" begin="1380" fromJunction="J0" toJunction="J4" end="1440" vehsPerHour="91.53073282734744"/>
  <flow id="JF80051" begin="1380" fromJunction="J0" toJunction="J2" end="1440" vehsPerHour="40.027691332285414"/>
  <flow id="JF80052" begin="1380" fromJunction="J4" toJunction="J2" end="1440" vehsPerHour="81.78862996286156"/>
  <flow id="JF80053" begin="1380" fromJunction="J2" toJunction="J4" end="1440" vehsPerHour="54.119785890710276"/>
  <flow id="JF80054" begin="1380" fromJunction="J4" toJunction="J3" end="1440" vehsPerHour="31.8460386811882"/>
  <flow id="JF80055" begin="1380" fromJunction="J4" toJunction="J0" end="1440" vehsPerHour="26.13893732187692"/>
  <flow id="JF80056" begin="1380" fromJunction="J2" toJunction="J3" end="1440" vehsPerHour="2.96814765050204"/>
  <flow id="JF80057" begin="1380" fromJunction="J2" toJunction="J0" end="1440" vehsPerHour="94.6973926153081"/>
  <flow id="JF80058" begin="1440" fromJunction="J3" toJunction="J0" end="1500" vehsPerHour="451.1875290920489"/>
  <flow id="JF80059" begin="1440" fromJunction="J0" toJunction="J3" end="1500" vehsPerHour="352.0375183225855"/>
  <flow id="JF80060" begin="1440" fromJunction="J3" toJunction="J4" end="1500" vehsPerHour="78.97523112961801"/>
  <flow id="JF80061" begin="1440" fromJunction="J3" toJunction="J2" end="1500" vehsPerHour="104.68645665765733"/>
  <flow id="JF80062" begin="1440" fromJunction="J0" toJunction="J4" end="1500" vehsPerHour="112.41663919862887"/>
  <flow id="JF80063" begin="1440" fromJunction="J0" toJunction="J2" end="1500" vehsPerHour="18.149236719511475"/>
  <flow id="JF80064" begin="1440" fromJunction="J4" toJunction="J2" end="1500" vehsPerHour="106.86554473668667"/>
  <flow id="JF80065" begin="1440" fromJunction="J2" toJunction="J4" end="1500" vehsPerHour="100.57746881577819"/>
  <flow id="JF80066" begin="1440" fromJunction="J4" toJunction="J3" end="1500" vehsPerHour="89.16671206985455"/>
  <flow id="JF80067" begin="1440" fromJunction="J4" toJunction="J0" end="1500" vehsPerHour="16.148498565808595"/>
  <flow id="JF80068" begin="1440" fromJunction="J2" toJunction="J3" end="1500" vehsPerHour="51.789351954124804"/>
  <flow id="JF80069" begin="1440" fromJunction="J2" toJunction="J0" end="1500" vehsPerHour="29.61193465291086"/>
  <flow id="JF80070" begin="1500" fromJunction="J3" toJunction="J0" end="1560" vehsPerHour="457.60929767768783"/>
  <flow id="JF80071" begin="1500" fromJunction="J0" toJunction="J3" end="1560" vehsPerHour="148.6017123013123"/>
  <flow id="JF80072" begin="1500" fromJunction="J3" toJunction="J4" end="1560" vehsPerHour="67.36178080901551"/>
  <flow id="JF80073" begin="1500" fromJunction="J3" toJunction="J2" end="1560" vehsPerHour="60.62775456088869"/>
  <flow id="JF80074" begin="1500" fromJunction="J0" toJunction="J4" end="1560" vehsPerHour="2.8081171682564245"/>
  <flow id="JF80075" begin="1500" fromJunction="J0" toJunction="J2" end="1560" vehsPerHour="114.94582797872475"/>
  <flow id="JF80076" begin="1500" fromJunction="J4" toJunction="J2" end="1560" vehsPerHour="11.93616688340522"/>
  <flow id="JF80077" begin="1500" fromJunction="J2" toJunction="J4" end="1560" vehsPerHour="34.529544243540094"/>