<?xml version="1.0" encoding="UTF-8"?>
<routes xmlns:xsi="http://www.w3.org/2001/XMLSchema-instance" xsi:noNamespaceSchemaLocation="http://sumo.dlr.de/xsd/routes_file.xsd">
  <flow id="JF73643" begin="0" fromJunction="J3" toJunction="J0" end="60" vehsPerHour="545.7848552917068"/>
  <flow id="JF73644" begin="0" fromJunction="J0" toJunction="J3" end="60" vehsPerHour="146.15184551873742"/>
  <flow id="JF73645" begin="0" fromJunction="J3" toJunction="J4" end="60" vehsPerHour="29.70286103591308"/>
  <flow id="JF73646" begin="0" fromJunction="J3" toJunction="J2" end="60" vehsPerHour="122.47906219339872"/>
  <flow id="JF73647" begin="0" fromJunction="J0" toJunction="J4" end="60" vehsPerHour="64.27792065813293"/>
  <flow id="JF73648" begin="0" fromJunction="J0" toJunction="J2" end="60" vehsPerHour="128.77734602403768"/>
  <flow id="JF73649" begin="60" fromJunction="J3" toJunction="J0" end="120" vehsPerHour="544.1033641383909"/>
  <flow id="JF73650" begin="60" fromJunction="J0" toJunction="J3" end="120" vehsPerHour="473.20662321292514"/>
  <flow id="JF73651" begin="60" fromJunction="J3" toJunction="J4" end="120" vehsPerHour="79.50914688725706"/>
  <flow id="JF73652" begin="60" fromJunction="J3" toJunction="J2" end="120" vehsPerHour="69.597635914539"/>
  <flow id="JF73653" begin="60" fromJunction="J0" toJunction="J4" end="120" vehsPerHour="87.48461871197567"/>
  <flow id="JF73654" begin="60" fromJunction="J0" toJunction="J2" end="120" vehsPerHour="120.8165325511701"/>
  <flow id="JF73655" begin="60" fromJunction="J4" toJunction="J2" end="120" vehsPerHour="89.43117942141654"/>
  <flow id="JF73656" begin="60" fromJunction="J2" toJunction="J4" end="120" vehsPerHour="101.1778649851609"/>
  <flow id="JF73657" begin="60" fromJunction="J4" toJunction="J3" end="120" vehsPerHour="95.24573387676529"/>
  <flow id="JF73658" begin="60" fromJunction="J4" toJunction="J0" end="120" vehsPerHour="31.4781708111506"/>
  <flow id="JF73659" begin="60" fromJunction="J2" toJunction="J3" end="120" vehsPerHour="20.536995931005457"/>
  <flow id="JF73660" begin="60" fromJunction="J2" toJunction="J0" end="120" vehsPerHour="27.423772746526048"/>
  <flow id="JF73661" begin="120" fromJunction="J3" toJunction="J0" end="180" vehsPerHour="21.58697761145476"/>
  <flow id="JF73662" begin="120" fromJunction="J0" toJunction="J3" end="180" vehsPerHour="159.74067449773764"/>
  <flow id="JF73663" begin="120" fromJunction="J3" toJunction="J4" end="180" vehsPerHour="85.29368646120727"/>
  <flow id="JF73664" begin="120" fromJunction="J3" toJunction="J2" end="180" vehsPerHour="40.11040659001657"/>
  <flow id="JF73665" begin="120" fromJunction="J0" toJunction="J4" end="180" vehsPerHour="20.852915894721164"/>
  <flow id="JF73666" begin="120" fromJunction="J0" toJunction="J2" end="180" vehsPerHour="34.47594706762575"/>
  <flow id="JF73667" begin="120" fromJunction="J4" toJunction="J2" end="180" vehsPerHour="29.85307262844581"/>
  <flow id="JF73668" begin="120" fromJunction="J2" toJunction="J4" end="180" vehsPerHour="128.17903458454734"/>
  <flow id="JF73669" begin="120" fromJunction="J4" toJunction="J3" end="180" vehsPerHour="127.21977787959463"/>
  <flow id="JF73670" begin="120" fromJunction="J4" toJunction="J0" end="180" vehsPerHour="96.51172079527261"/>
  <flow id="JF73671" begin="120" fromJunction="J2" toJunction="J3" end="180" vehsPerHour="82.70122091885146"/>
  <flow id="JF73672" begin="120" fromJunction="J2" toJunction="J0" end="180" vehsPerHour="62.02536560228876"/>
  <flow id="JF73673" begin="180" fromJunction="J3" toJunction="J0" end="240" vehsPerHour="484.51284690274395"/>
  <flow id="JF73674" begin="180" fromJunction="J0" toJunction="J3" end="240" vehsPerHour="131.02235012185835"/>
  <flow id="JF73675" begin="180" fromJunction="J3" toJunction="J4" end="240" vehsPerHour="133.92255094311145"/>
  <flow id="JF73676" begin="180" fromJunction="J3" toJunction="J2" end="240" vehsPerHour="82.54683105696456"/>
  <flow id="JF73677" begin="180" fromJunction="J0" toJunction="J4" end="240" vehsPerHour="51.858164631233976"/>
  <flow id="JF73678" begin="180" fromJunction="J0" toJunction="J2" end="240" vehsPerHour="110.67886525002442"/>
  <flow id="JF73679" begin="180" fromJunction="J4" toJunction="J2" end="240" vehsPerHour="112.47482734149501"/>
  <flow id="JF73680" begin="180" fromJunction="J2" toJunction="J4" end="240" vehsPerHour="31.059821666927153"/>
  <flow id="JF73681" begin="180" fromJunction="J4" toJunction="J3" end="240" vehsPerHour="103.8900503207464"/>
  <flow id="JF73682" begin="180" fromJunction="J4" toJunction="J0" end="240" vehsPerHour="46.10792778985027"/>
  <flow id="JF73683" begin="180" fromJunction="J2" toJunction="J3" end="240" vehsPerHour="95.89278840299384"/>
  <flow id="JF73684" begin="180" fromJunction="J2" toJunction="J0" end="240" vehsPerHour="64.0344112061072"/>
  <flow id="JF73685" begin="240" fromJunction="J3" toJunction="J0" end="300" vehsPerHour="183.0110777078186"/>
  <flow id="JF73686" begin="240" fromJunction="J0" toJunction="J3" end="300" vehsPerHour="506.53754034226455"/>
  <flow id="JF73687" begin="240" fromJunction="J3" toJunction="J4" end="300" vehsPerHour="46.379061791653484"/>
  <flow id="JF73688" begin="240" fromJunction="J3" toJunction="J2" end="300" vehsPerHour="119.23353098251975"/>
  <flow id="JF73689" begin="240" fromJunction="J0" toJunction="J4" end="300" vehsPerHour="67.54921778345877"/>
  <flow id="JF73690" begin="240" fromJunction="J0" toJunction="J2" end="300" vehsPerHour="86.37251647580594"/>
  <flow id="JF73691" begin="300" fromJunction="J3" toJunction="J0" end="360" vehsPerHour="373.62659970293873"/>
  <flow id="JF73692" begin="300" fromJunction="J0" toJunction="J3" end="360" vehsPerHour="61.19117650027691"/>
  <flow id="JF73693" begin="300" fromJunction="J3" toJunction="J4" end="360" vehsPerHour="117.31179380624722"/>
  <flow id="JF73694" begin="300" fromJunction="J3" toJunction="J2" end="360" vehsPerHour="107.41920839120102"/>
  <flow id="JF73695" begin="300" fromJunction="J0" toJunction="J4" end="360" vehsPerHour="87.51651614944137"/>
  <flow id="JF73696" begin="300" fromJunction="J0" toJunction="J2" end="360" vehsPerHour="86.54785475532616"/>
  <flow id="JF73697" begin="300" fromJunction="J4" toJunction="J2" end="360" vehsPerHour="13.510713190664172"/>
  <flow id="JF73698" begin="300" fromJunction="J2" toJunction="J4" end="360" vehsPerHour="16.401297919854446"/>
  <flow id="JF73699" begin="300" fromJunction="J4" toJunction="J3" end="360" vehsPerHour="45.633449738018484"/>
  <flow id="JF73700" begin="300" fromJunction="J4" toJunction="J0" end="360" vehsPerHour="124.62135720711422"/>
  <flow id="JF73701" begin="300" fromJunction="J2" toJunction="J3" end="360" vehsPerHour="77.88332246812875"/>
  <flow id="JF73702" begin="300" fromJunction="J2" toJunction="J0" end="360" vehsPerHour="40.45675312932728"/>
  <flow id="JF73703" begin="360" fromJunction="J3" toJunction="J0" end="420" vehsPerHour="247.16111200536483"/>
  <flow id="JF73704" begin="360" fromJunction="J0" toJunction="J3" end="420" vehsPerHour="100.1185233205845"/>
  <flow id="JF73705" begin="360" fromJunction="J3" toJunction="J4" end="420" vehsPerHour="90.80045513984655"/>
  <flow id="JF73706" begin="360" fromJunction="J3" toJunction="J2" end="420" vehsPerHour="21.977447121825726"/>
  <flow id="JF73707" begin="360" fromJunction="J0" toJunction="J4" end="420" vehsPerHour="122.51872456282737"/>
  <flow id="JF73708" begin="360" fromJunction="J0" toJunction="J2" end="420" vehsPerHour="114.03932375783553"/>
  <flow id="JF73709" begin="360" fromJunction="J4" toJunction="J2" end="420" vehsPerHour="123.67833943418722"/>
  <flow id="JF73710" begin="360" fromJunction="J2" toJunction="J4" end="420" vehsPerHour="9.442364280182591"/>
  <flow id="JF73711" begin="360" fromJunction="J4" toJunction="J3" end="420" vehsPerHour="102.70493124537866"/>
  <flow id="JF73712" begin="360" fromJunction="J4" toJunction="J0" end="420" vehsPerHour="89.61343039737956"/>
  <flow id="JF73713" begin="360" fromJunction="J2" toJunction="J3" end="420" vehsPerHour="98.89014567412082"/>
  <flow id="JF73714" begin="360" fromJunction="J2" toJunction="J0" end="420" vehsPerHour="46.64104418141413"/>
  <flow id="JF73715" begin="420" fromJunction="J3" toJunction="J0" end="480" vehsPerHour="25.584626169331656"/>
  <flow id="JF73716" begin="420" fromJunction="J0" toJunction="J3" end="480" vehsPerHour="268.05660233708204"/>
  <flow id="JF73717" begin="420" fromJunction="J3" toJunction="J4" end="480" vehsPerHour="12.299111087905992"/>
  <flow id="JF73718" begin="420" fromJunction="J3" toJunction="J2" end="480" vehsPerHour="13.63015371988585"/>
  <flow id="JF73719" begin="420" fromJunction="J0" toJunction="J4" end="480" vehsPerHour="133.46740919107913"/>
  <flow id="JF73720" begin="420" fromJunction="J0" toJunction="J2" end="480" vehsPerHour="53.66403010678172"/>
  <flow id="JF73721" begin="480" fromJunction="J3" toJunction="J0" end="540" vehsPerHour="265.3101741084728"/>
  <flow id="JF73722" begin="480" fromJunction="J0" toJunction="J3" end="540" vehsPerHour="160.16210832351396"/>
  <flow id="JF73723" begin="480" fromJunction="J3" toJunction="J4" end="540" vehsPerHour="49.77852961680062"/>
  <flow id="JF73724" begin="480" fromJunction="J3" toJunction="J2" end="540" vehsPerHour="128.8026890716838"/>
  <flow id="JF73725" begin="480" fromJunction="J0" toJunction="J4" end="540" vehsPerHour="74.91849242162039"/>
  <flow id="JF73726" begin="480" fromJunction="J0" toJunction="J2" end="540" vehsPerHour="28.754176330158433"/>
  <flow id="JF73727" begin="540" fromJunction="J3" toJunction="J0" end="600" vehsPerHour="488.5903966710227"/>
  <flow id="JF73728" begin="540" fromJunction="J0" toJunction="J3" end="600" vehsPerHour="78.18122171797651"/>
  <flow id="JF73729" begin="540" fromJunction="J3" toJunction="J4" end="600" vehsPerHour="132.58129216492813"/>
  <flow id="JF73730" begin="540" fromJunction="J3" toJunction="J2" end="600" vehsPerHour="98.76328117848462"/>
  <flow id="JF73731" begin="540" fromJunction="J0" toJunction="J4" end="600" vehsPerHour="20.0630251582532"/>
  <flow id="JF73732" begin="540" fromJunction="J0" toJunction="J2" end="600" vehsPerHour="114.32345011296077"/>
  <flow id="JF73733" begin="540" fromJunction="J4" toJunction="J2" end="600" vehsPerHour="57.13617498077444"/>
  <flow id="JF73734" begin="540" fromJunction="J2" toJunction="J4" end="600" vehsPerHour="102.2932212542886"/>
  <flow id="JF73735" begin="540" fromJunction="J4" toJunction="J3" end="600" vehsPerHour="9.092758292094006"/>
  <flow id="JF73736" begin="540" fromJunction="J4" toJunction="J0" end="600" vehsPerHour="34.996780250669694"/>
  <flow id="JF73737" begin="540" fromJunction="J2" toJunction="J3" end="600" vehsPerHour="137.36655760484538"/>
  <flow id="JF73738" begin="540" fromJunction="J2" toJunction="J0" end="600" vehsPerHour="126.11795401802895"/>
  <flow id="JF73739" begin="600" fromJunction="J3" toJunction="J0" end="660" vehsPerHour="498.2558349883912"/>
  <flow id="JF73740" begin="600" fromJunction="J0" toJunction="J3" end="660" vehsPerHour="247.67598124411467"/>
  <flow id="JF73741" begin="600" fromJunction="J3" toJunction="J4" end="660" vehsPerHour="44.890758292108266"/>
  <flow id="JF73742" begin="600" fromJunction="J3" toJunction="J2" end="660" vehsPerHour="41.901630499846455"/>
  <flow id="JF73743" begin="600" fromJunction="J0" toJunction="J4" end="660" vehsPerHour="19.04716441440275"/>
  <flow id="JF73744" begin="600" fromJunction="J0" toJunction="J2" end="660" vehsPerHour="4.17317073164327"/>
  <flow id="JF73745" begin="600" fromJunction="J4" toJunction="J2" end="660" vehsPerHour="30.45526548731289"/>
  <flow id="JF73746" begin="600" fromJunction="J2" toJunction="J4" end="660" vehsPerHour="36.19513037431843"/>
  <flow id="JF73747" begin="600" fromJunction="J4" toJunction="J3" end="660" vehsPerHour="128.22654560862773"/>
  <flow id="JF73748" begin="600" fromJunction="J4" toJunction="J0" end="660" vehsPerHour="3.7989468006419127"/>
  <flow id="JF73749" begin="600" fromJunction="J2" toJunction="J3" end="660" vehsPerHour="86.86916709607566"/>
  <flow id="JF73750" begin="600" fromJunction="J2" toJunction="J0" end="660" vehsPerHour="6.413562743443883"/>
  <flow id="JF73751" begin="660" fromJunction="J3" toJunction="J0" end="720" vehsPerHour="298.8597027355006"/>
  <flow id="JF73752" begin="660" fromJunction="J0" toJunction="J3" end="720" vehsPerHour="201.0919754322848"/>
  <flow id="JF73753" begin="660" fromJunction="J3" toJunction="J4" end="720" vehsPerHour="49.222786861094185"/>
  <flow id="JF73754" begin="660" fromJunction="J3" toJunction="J2" end="720" vehsPerHour="18.67589740666521"/>
  <flow id="JF73755" begin="660" fromJunction="J0" toJunction="J4" end="720" vehsPerHour="87.78902731319323"/>
  <flow id="JF73756" begin="660" fromJunction="J0" toJunction="J2" end="720" vehsPerHour="80.00661963211734"/>
  <flow id="JF73757" begin="660" fromJunction="J4" toJunction="J2" end="720" vehsPerHour="54.631071868265074"/>
  <flow id="JF73758" begin="660" fromJunction="J2" toJunction="J4" end="720" vehsPerHour="131.00872033631862"/>
  <flow id="JF73759" begin="660" fromJunction="J4" toJunction="J3" end="720" vehsPerHour="109.31090680484259"/>
  <flow id="JF73760" begin="660" fromJunction="J4" toJunction="J0" end="720" vehsPerHour="58.633527126098826"/>
  <flow id="JF73761" begin="660" fromJunction="J2" toJunction="J3" end="720" vehsPerHour="74.33612881072479"/>
  <flow id="JF73762" begin="660" fromJunction="J2" toJunction="J0" end="720" vehsPerHour="24.824772356317936"/>
  <flow id="JF73763" begin="720" fromJunction="J3" toJunction="J0" end="780" vehsPerHour="141.4541474427356"/>
  <flow id="JF73764" begin="720" fromJunction="J0" toJunction="J3" end="780" vehsPerHour="227.04524470191046"/>
  <flow id="JF73765" begin="720" fromJunction="J3" toJunction="J4" end="780" vehsPerHour="5.53257827027299"/>
  <flow id="JF73766" begin="720" fromJunction="J3" toJunction="J2" end="780" vehsPerHour="52.679498259873355"/>
  <flow id="JF73767" begin="720" fromJunction="J0" toJunction="J4" end="780" vehsPerHour="128.24197492008793"/>
  <flow id="JF73768" begin="720" fromJunction="J0" toJunction="J2" end="780" vehsPerHour="118.52419146831073"/>
  <flow id="JF73769" begin="720" fromJunction="J4" toJunction="J2" end="780" vehsPerHour="54.25446652592808"/>
  <flow id="JF73770" begin="720" fromJunction="J2" toJunction="J4" end="780" vehsPerHour="132.65498960564915"/>
  <flow id="JF73771" begin="720" fromJunction="J4" toJunction="J3" end="780" vehsPerHour="18.685274159161064"/>
  <flow id="JF73772" begin="720" fromJunction="J4" toJunction="J0" end="780" vehsPerHour="76.35638577199444"/>
  <flow id="JF73773" begin="720" fromJunction="J2" toJunction="J3" end="780" vehsPerHour="98.30715757938923"/>
  <flow id="JF73774" begin="720" fromJunction="J2" toJunction="J0" end="780" vehsPerHour="134.9445971411448"/>
  <flow id="JF73775" begin="780" fromJunction="J3" toJunction="J0" end="840" vehsPerHour="325.24949085045233"/>
  <flow id="JF73776" begin="780" fromJunction="J0" toJunction="J3" end="840" vehsPerHour="307.99999496364927"/>
  <flow id="JF73777" begin="780" fromJunction="J3" toJunction="J4" end="840" vehsPerHour="51.1167336440276"/>
  <flow id="JF73778" begin="780" fromJunction="J3" toJunction="J2" end="840" vehsPerHour="68.31443627653799"/>
  <flow id="JF73779" begin="780" fromJunction="J0" toJunction="J4" end="840" vehsPerHour="12.270073253709125"/>
  <flow id="JF73780" begin="780" fromJunction="J0" toJunction="J2" end="840" vehsPerHour="93.7415539330222"/>
  <flow id="JF73781" begin="780" fromJunction="J4" toJunction="J2" end="840" vehsPerHour="52.52968444564754"/>
  <flow id="JF73782" begin="780" fromJunction="J2" toJunction="J4" end="840" vehsPerHour="60.33189117756393"/>
  <flow id="JF73783" begin="780" fromJunction="J4" toJunction="J3" end="840" vehsPerHour="109.48500980583329"/>
  <flow id="JF73784" begin="780" fromJunction="J4" toJunction="J0" end="840" vehsPerHour="115.44558700105802"/>
  <flow id="JF73785" begin="780" fromJunction="J2" toJunction="J3" end="840" vehsPerHour="10.848741192964946"/>
  <flow id="JF73786" begin="780" fromJunction="J2" toJunction="J0" end="840" vehsPerHour="114.69816262789448"/>
  <flow id="JF73787" begin="840" fromJunction="J3" toJunction="J0" end="900" vehsPerHour="246.4351882448819"/>
  <flow id="JF73788" begin="840" fromJunction="J0" toJunction="J3" end="900" vehsPerHour="343.39585214278435"/>
  <flow id="JF73789" begin="840" fromJunction="J3" toJunction="J4" end="900" vehsPerHour="39.44742618068888"/>
  <flow id="JF73790" begin="840" fromJunction="J3" toJunction="J2" end="900" vehsPerHour="68.32164301544566"/>
  <flow id="JF73791" begin="840" fromJunction="J0" toJunction="J4" end="900" vehsPerHour="134.78443479565738"/>
  <flow id="JF73792" begin="840" fromJunction="J0" toJunction="J2" end="900" vehsPerHour="41.38608546200039"/>
  <flow id="JF73793" begin="900" fromJunction="J3" toJunction="J0" end="960" vehsPerHour="64.53971528967514"/>
  <flow id="JF73794" begin="900" fromJunction="J0" toJunction="J3" end="960" vehsPerHour="98.05816526263806"/>
  <flow id="JF73795" begin="900" fromJunction="J3" toJunction="J4" end="960" vehsPerHour="129.59523742784972"/>
  <flow id="JF73796" begin="900" fromJunction="J3" toJunction="J2" end="960" vehsPerHour="75.12911239754237"/>
  <flow id="JF73797" begin="900" fromJunction="J0" toJunction="J4" end="960" vehsPerHour="89.00123544641507"/>
  <flow id="JF73798" begin="900" fromJunction="J0" toJunction="J2" end="960" vehsPerHour="42.74446072235595"/>
  <flow id="JF73799" begin="900" fromJunction="J4" toJunction="J2" end="960" vehsPerHour="86.89694101855964"/>
  <flow id="JF73800" begin="900" fromJunction="J2" toJunction="J4" end="960" vehsPerHour="28.772421155264315"/>
  <flow id="JF73801" begin="900" fromJunction="J4" toJunction="J3" end="960" vehsPerHour="123.62452368017719"/>
  <flow id="JF73802" begin="900" fromJunction="J4" toJunction="J0" end="960" vehsPerHour="69.24039219557235"/>
  <flow id="JF73803" begin="900" fromJunction="J2" toJunction="J3" end="960" vehsPerHour="30.85949638601092"/>
  <flow id="JF73804" begin="900" fromJunction="J2" toJunction="J0" end="960" vehsPerHour="66.06003614763696"/>
  <flow id="JF73805" begin="960" fromJunction="J3" toJunction="J0" end="1020" vehsPerHour="538.8256081000038"/>
  <flow id="JF73806" begin="960" fromJunction="J0" toJunction="J3" end="1020" vehsPerHour="156.3890734945006"/>
  <flow id="JF73807" begin="960" fromJunction="J3" toJunction="J4" end="1020" vehsPerHour="94.18589798278369"/>
  <flow id="JF73808" begin="960" fromJunction="J3" toJunction="J2" end="1020" vehsPerHour="22.508148883547186"/>
  <flow id="JF73809" begin="960" fromJunction="J0" toJunction="J4" end="1020" vehsPerHour="22.85575694136471"/>
  <flow id="JF73810" begin="960" fromJunction="J0" toJunction="J2" end="1020" vehsPerHour="20.248058807187157"/>
  <flow id="JF73811" begin="960" fromJunction="J4" toJunction="J2" end="1020" vehsPerHour="8.019318182475764"/>
  <flow id="JF73812" begin="960" fromJunction="J2" toJunction="J4" end="1020" vehsPerHour="39.3317369804678"/>
  <flow id="JF73813" begin="960" fromJunction="J4" toJunction="J3" end="1020" vehsPerHour="128.43552051513888"/>
  <flow id="JF73814" begin="960" fromJunction="J4" toJunction="J0" end="1020" vehsPerHour="6.769045118530457"/>
  <flow id="JF73815" begin="960" fromJunction="J2" toJunction="J3" end="1020" vehsPerHour="125.42093988592427"/>
  <flow id="JF73816" begin="960" fromJunction="J2" toJunction="J0" end="1020" vehsPerHour="19.3820210508085"/>
  <flow id="JF73817" begin="1020" fromJunction="J3" toJunction="J0" end="1080" vehsPerHour="260.69560418854184"/>
  <flow id="JF73818" begin="1020" fromJunction="J0" toJunction="J3" end="1080" vehsPerHour="125.13638832862293"/>
  <flow id="JF73819" begin="1020" fromJunction="J3" toJunction="J4" end="1080" vehsPerHour="91.5382416448345"/>
  <flow id="JF73820" begin="1020" fromJunction="J3" toJunction="J2" end="1080" vehsPerHour="4.679059998198726"/>
  <flow id="JF73821" begin="1020" fromJunction="J0" toJunction="J4" end="1080" vehsPerHour="54.93292931465744"/>
  <flow id="JF73822" begin="1020" fromJunction="J0" toJunction="J2" end="1080" vehsPerHour="56.604674947957854"/>
  <flow id="JF73823" begin="1080" fromJunction="J3" toJunction="J0" end="1140" vehsPerHour="401.4618647836726"/>
  <flow id="JF73824" begin="1080" fromJunction="J0" toJunction="J3" end="1140" vehsPerHour="129.72986362964045"/>
  <flow id="JF73825" begin="1080" fromJunction="J3" toJunction="J4" end="1140" vehsPerHour="41.65669563134428"/>
  <flow id="JF73826" begin="1080" fromJunction="J3" toJunction="J2" end="1140" vehsPerHour="100.82711607608977"/>
  <flow id="JF73827" begin="1080" fromJunction="J0" toJunction="J4" end="1140" vehsPerHour="30.942083433984035"/>
  <flow id="JF73828" begin="1080" fromJunction="J0" toJunction="J2" end="1140" vehsPerHour="20.03975487453084"/>
  <flow id="JF73829" begin="1080" fromJunction="J4" toJunction="J2" end="1140" vehsPerHour="28.718916953758914"/>
  <flow id="JF73830" begin="1080" fromJunction="J2" toJunction="J4" end="1140" vehsPerHour="131.5295391941366"/>
  <flow id="JF73831" begin="1080" fromJunction="J4" toJunction="J3" end="1140" vehsPerHour="77.15610275796712"/>
  <flow id="JF73832" begin="1080" fromJunction="J4" toJunction="J0" end="1140" vehsPerHour="83.2421253215745"/>
  <flow id="JF73833" begin="1080" fromJunction="J2" toJunction="J3" end="1140" vehsPerHour="17.925462869773973"/>
  <flow id="JF73834" begin="1080" fromJunction="J2" toJunction="J0" end="1140" vehsPerHour="9.719737545951158"/>
  <flow id="JF73835" begin="1140" fromJunction="J3" toJunction="J0" end="1200" vehsPerHour="471.5692782884978"/>
  <flow id="JF73836" begin="1140" fromJunction="J0" toJunction="J3" end="1200" vehsPerHour="143.5437284679998"/>
  <flow id="JF73837" begin="1140" fromJunction="J3" toJunction="J4" end="1200" vehsPerHour="112.10082310243764"/>
  <flow id="JF73838" begin="1140" fromJunction="J3" toJunction="J2" end="1200" vehsPerHour="78.90014365115891"/>
  <flow id="JF73839" begin="1140" fromJunction="J0" toJunction="J4" end="1200" vehsPerHour="34.54976998700166"/>
  <flow id="JF73840" begin="1140" fromJunction="J0" toJunction="J2" end="1200" vehsPerHour="105.39280573575681"/>
  <flow id="JF73841" begin="1140" fromJunction="J4" toJunction="J2" end="1200" vehsPerHour="66.83465435382776"/>
  <flow id="JF73842" begin="1140" fromJunction="J2" toJunction="J4" end="1200" vehsPerHour="98.81495797519355"/>
  <flow id="JF73843" begin="1140" fromJunction="J4" toJunction="J3" end="1200" vehsPerHour="129.8902879049212"/>
  <flow id="JF73844" begin="1140" fromJunction="J4" toJunction="J0" end="1200" vehsPerHour="46.844248147323604"/>
  <flow id="JF73845" begin="1140" fromJunction="J2" toJunction="J3" end="1200" vehsPerHour="35.468382268808966"/>
  <flow id="JF73846" begin="1140" fromJunction="J2" toJunction="J0" end="1200" vehsPerHour="124.91841665926897"/>
  <flow id="JF73847" begin="1200" fromJunction="J3" toJunction="J0" end="1260" vehsPerHour="467.3189024720203"/>
  <flow id="JF73848" begin="1200" fromJunction="J0" toJunction="J3" end="1260" vehsPerHour="233.7959156463509"/>
  <flow id="JF73849" begin="1200" fromJunction="J3" toJunction="J4" end="1260" vehsPerHour="133.49469273262616"/>
  <flow id="JF73850" begin="1200" fromJunction="J3" toJunction="J2" end="1260" vehsPerHour="0.9489827272154955"/>
  <flow id="JF73851" begin="1200" fromJunction="J0" toJunction="J4" end="1260" vehsPerHour="88.61941086190483"/>
  <flow id="JF73852" begin="1200" fromJunction="J0" toJunction="J2" end="1260" vehsPerHour="95.88610110505464"/>
  <flow id="JF73853" begin="1260" fromJunction="J3" toJunction="J0" end="1320" vehsPerHour="387.6098682584437"/>
  <flow id="JF73854" begin="1260" fromJunction="J0" toJunction="J3" end="1320" vehsPerHour="86.08547284466657"/>
  <flow id="JF73855" begin="1260" fromJunction="J3" toJunction="J4" end="1320" vehsPerHour="79.32696210983933"/>
  <flow id="JF73856" begin="1260" fromJunction="J3" toJunction="J2" end="1320" vehsPerHour="26.762950728556177"/>
  <flow id="JF73857" begin="1260" fromJunction="J0" toJunction="J4" end="1320" vehsPerHour="60.203215774808314"/>
  <flow id="JF73858" begin="1260" fromJunction="J0" toJunction="J2" end="1320" vehsPerHour="9.352202524577974"/>
  <flow id="JF73859" begin="1320" fromJunction="J3" toJunction="J0" end="1380" vehsPerHour="397.3165216690941"/>
  <flow id="JF73860" begin="1320" fromJunction="J0" toJunction="J3" end="1380" vehsPerHour="50.11321773476643"/>
  <flow id="JF73861" begin="1320" fromJunction="J3" toJunction="J4" end="1380" vehsPerHour="56.19764855384469"/>
  <flow id="JF73862" begin="1320" fromJunction="J3" toJunction="J2" end="1380" vehsPerHour="87.1921413550579"/>
  <flow id="JF73863" begin="1320" fromJunction="J0" toJunction="J4" end="1380" vehsPerHour="108.92259330923663"/>
  <flow id="JF73864" begin="1320" fromJunction="J0" toJunction="J2" end="1380" vehsPerHour="99.8341130031695"/>
  <flow id="JF73865" begin="1380" fromJunction="J3" toJunction="J0" end="1440" vehsPerHour="182.3597622859746"/>
  <flow id="JF73866" begin="1380" fromJunction="J0" toJunction="J3" end="1440" vehsPerHour="232.89352518933595"/>
  <flow id="JF73867" begin="1380" fromJunction="J3" toJunction="J4" end="1440" vehsPerHour="89.39537464304802"/>
  <flow id="JF73868" begin="1380" fromJunction="J3" toJunction="J2" end="1440" vehsPerHour="69.01780730600802"/>
  <flow id="JF73869" begin="1380" fromJunction="J0" toJunction="J4" end="1440" vehsPerHour="71.836182722482"/>
  <flow id="JF73870" begin="1380" fromJunction="J0" toJunction="J2" end="1440" vehsPerHour="118.17430565999089"/>
  <flow id="JF73871" begin="1440" fromJunction="J3" toJunction="J0" end="1500" vehsPerHour="219.90913579552887"/>
  <flow id="JF73872" begin="1440" fromJunction="J0" toJunction="J3" end="1500" vehsPerHour="478.4837077673338"/>
  <flow id="JF73873" begin="1440" fromJunction="J3" toJunction="J4" end="1500" vehsPerHour="7.0263161663436176"/>
  <flow id="JF73874" begin="1440" fromJunction="J3" toJunction="J2" end="1500" vehsPerHour="82.17836576471603"/>
  <flow id="JF73875" begin="1440" fromJunction="J0" toJunction="J4" end="1500" vehsPerHour="18.015001882099313"/>
  <flow id="JF73876" begin="1440" fromJunction="J0" toJunction="J2" end="1500" vehsPerHour="58.3945087390223"/>
  <flow id="JF73877" begin="1440" fromJunction="J4" toJunction="J2" end="1500" vehsPerHour="133.86820237674965"/>
  <flow id="JF73878" begin="1440" fromJunction="J2" toJunction="J4" end="1500" vehsPerHour="101.85829000189156"/>
  <flow id="JF73879" begin="1440" fromJunction="J4" toJunction="J3" end="1500" vehsPerHour="116.63516213840511"/>
  <flow id="JF73880" begin="1440" fromJunction="J4" toJunction="J0" end="1500" vehsPerHour="6.45595173968948"/>
  <flow id="JF73881" begin="1440" fromJunction="J2" toJunction="J3" end="1500" vehsPerHour="66.33810244685742"/>
  <flow id="JF73882" begin="1440" fromJunction="J2" toJunction="J0" end="1500" vehsPerHour="5.997343484537565"/>
  <flow id="JF73883" begin="1500" fromJunction="J3" toJunction="J0" end="1560" vehsPerHour="443.05102231777806"/>
  <flow id="JF73884" begin="1500" fromJunction="J0" toJunction="J3" end="1560" vehsPerHour="518.135865243654"/>
  <flow id="JF73885" begin="1500" fromJunction="J3" toJunction="J4" end="1560" vehsPerHour="52.16583805194132"/>
  <flow id="JF73886" begin="1500" fromJunction="J3" toJunction="J2" end="1560" vehsPerHour="39.390780898758436"/>
  <flow id="JF73887" begin="1500" fromJunction="J0" toJunction="J4" end="1560" vehsPerHour="135.89294221348473"/>
  <flow id="JF73888" begin="1500" fromJunction="J0" toJunction="J2" end="1560" vehsPerHour="25.760891479046588"/>
  <flow id="JF73889" begin="1500" fromJunction="J4" toJunction="J2" end="1560" vehsPerHour="131.61088435536857"/>
  <flow id="JF73890" begin="1500" fromJunction="J2" toJunction="J4" end="1560" vehsPerHour="39.206653196789524"/>
  <flow id="JF73891" begin="1500" fromJunction="J4" toJunction="J3" end="1560" vehsPerHour="115.90925062093966"/>
  <flow id="JF73892" begin="1500" fromJunction="J4" toJunction="J0" end="1560" vehsPerHour="19.552753814972544"/>
  <flow id="JF73893" begin="1500" fromJunction="J2" toJunction="J3" end="1560" vehsPerHour="18.887428538731456"/>
  <flow id="JF73894" begin="1500" fromJunction="J2" toJunction="J0" end="1560" vehsPerHour="13.326676440506768"/>
  <flow id="JF73895" begin="1560" fromJunction="J3" toJunction="J0" end="1620" vehsPerHour="544.0201204573608"/>
  <flow id="JF73896" begin="1560" fromJunction="J0" toJunction="J3" end="1620" vehsPerHour="129.8708077801936"/>
  <flow id="JF73897" begin="1560" fromJunction="J3" toJunction="J4" end="1620" vehsPerHour="37.34125563128403"/>
  <flow id="JF73898" begin="1560" fromJunction="J3" toJunction="J2" end="1620" vehsPerHour="64.76233267554694"/>
  <flow id="JF73899" begin="1560" fromJunction="J0" toJunction="J4" end="1620" vehsPerHour="3.3629682467878252"/>
  <flow id="JF73900" begin="1560" fromJunction="J0" toJunction="J2" end="1620" vehsPerHour="117.94683010381898"/>
  <flow id="JF73901" begin="1560" fromJunction="J4" toJunction="J2" end="1620" vehsPerHour="45.152699548728734"/>
  <flow id="JF73902" begin="1560" fromJunction="J2" toJunction="J4" end="1620" vehsPerHour="50.34099929855118"/>
  <flow id="JF73903" begin="1560" fromJunction="J4" toJunction="J3" end="1620" vehsPerHour="37.06599809214206"/>
  <flow id="JF73904" begin="1560" fromJunction="J4" toJunction="J0" end="1620" vehsPerHour="132.113475175179"/>
  <flow id="JF73905" begin="1560" fromJunction="J2" toJunction="J3" end="1620" vehsPerHour="54.146995515025395"/>
  <flow id="JF73906" begin="1560" fromJunction="J2" toJunction="J0" end="1620" vehsPerHour="76.79055056123698"/>
  <flow id="JF73907" begin="1620" fromJunction="J3" toJunction="J0" end="1680" vehsPerHour="269.9667589515549"/>
  <flow id="JF73908" begin="1620" fromJunction="J0" toJunction="J3" end="1680" vehsPerHour="457.930321716589"/>