<?xml version="1.0" encoding="UTF-8"?>
<routes xmlns:xsi="http://www.w3.org/2001/XMLSchema-instance" xsi:noNamespaceSchemaLocation="http://sumo.dlr.de/xsd/routes_file.xsd">
  <flow id="JF81355" begin="0" fromJunction="J3" toJunction="J0" end="60" vehsPerHour="318.97599082599197"/>
  <flow id="JF81356" begin="0" fromJunction="J0" toJunction="J3" end="60" vehsPerHour="128.49123788473244"/>
  <flow id="JF81357" begin="0" fromJunction="J3" toJunction="J4" end="60" vehsPerHour="55.072436683392645"/>
  <flow id="JF81358" begin="0" fromJunction="J3" toJunction="J2" end="60" vehsPerHour="1.8372438221925875"/>
  <flow id="JF81359" begin="0" fromJunction="J0" toJunction="J4" end="60" vehsPerHour="113.70999244941918"/>
  <flow id="JF81360" begin="0" fromJunction="J0" toJunction="J2" end="60" vehsPerHour="13.590735494372804"/>
  <flow id="JF81361" begin="60" fromJunction="J3" toJunction="J0" end="120" vehsPerHour="429.69126749093766"/>
  <flow id="JF81362" begin="60" fromJunction="J0" toJunction="J3" end="120" vehsPerHour="137.64960774290967"/>
  <flow id="JF81363" begin="60" fromJunction="J3" toJunction="J4" end="120" vehsPerHour="131.18387935369196"/>
  <flow id="JF81364" begin="60" fromJunction="J3" toJunction="J2" end="120" vehsPerHour="89.93685009224566"/>
  <flow id="JF81365" begin="60" fromJunction="J0" toJunction="J4" end="120" vehsPerHour="128.76981604783515"/>
  <flow id="JF81366" begin="60" fromJunction="J0" toJunction="J2" end="120" vehsPerHour="47.168828989291676"/>
  <flow id="JF81367" begin="60" fromJunction="J4" toJunction="J2" end="120" vehsPerHour="32.79481255463722"/>
  <flow id="JF81368" begin="60" fromJunction="J2" toJunction="J4" end="120" vehsPerHour="60.220747773609105"/>
  <flow id="JF81369" begin="60" fromJunction="J4" toJunction="J3" end="120" vehsPerHour="29.69963623922204"/>
  <flow id="JF81370" begin="60" fromJunction="J4" toJunction="J0" end="120" vehsPerHour="29.403944888148843"/>
  <flow id="JF81371" begin="60" fromJunction="J2" toJunction="J3" end="120" vehsPerHour="42.093844785284254"/>
  <flow id="JF81372" begin="60" fromJunction="J2" toJunction="J0" end="120" vehsPerHour="52.32645866905948"/>
  <flow id="JF81373" begin="120" fromJunction="J3" toJunction="J0" end="180" vehsPerHour="229.28711030573754"/>
  <flow id="JF81374" begin="120" fromJunction="J0" toJunction="J3" end="180" vehsPerHour="278.0647895091081"/>
  <flow id="JF81375" begin="120" fromJunction="J3" toJunction="J4" end="180" vehsPerHour="50.40294976704068"/>
  <flow id="JF81376" begin="120" fromJunction="J3" toJunction="J2" end="180" vehsPerHour="107.71120114781945"/>
  <flow id="JF81377" begin="120" fromJunction="J0" toJunction="J4" end="180" vehsPerHour="33.14439709808954"/>
  <flow id="JF81378" begin="120" fromJunction="J0" toJunction="J2" end="180" vehsPerHour="120.68723637552628"/>
  <flow id="JF81379" begin="120" fromJunction="J4" toJunction="J2" end="180" vehsPerHour="31.716884288087673"/>
  <flow id="JF81380" begin="120" fromJunction="J2" toJunction="J4" end="180" vehsPerHour="1.0101407330172156"/>
  <flow id="JF81381" begin="120" fromJunction="J4" toJunction="J3" end="180" vehsPerHour="134.65251474975457"/>
  <flow id="JF81382" begin="120" fromJunction="J4" toJunction="J0" end="180" vehsPerHour="30.157436598338347"/>
  <flow id="JF81383" begin="120" fromJunction="J2" toJunction="J3" end="180" vehsPerHour="79.36239247409014"/>
  <flow id="JF81384" begin="120" fromJunction="J2" toJunction="J0" end="180" vehsPerHour="61.71844166665109"/>
  <flow id="JF81385" begin="180" fromJunction="J3" toJunction="J0" end="240" vehsPerHour="188.6517328782138"/>
  <flow id="JF81386" begin="180" fromJunction="J0" toJunction="J3" end="240" vehsPerHour="269.14937425746837"/>
  <flow id="JF81387" begin="180" fromJunction="J3" toJunction="J4" end="240" vehsPerHour="8.106202185011599"/>
  <flow id="JF81388" begin="180" fromJunction="J3" toJunction="J2" end="240" vehsPerHour="92.58691323320745"/>
  <flow id="JF81389" begin="180" fromJunction="J0" toJunction="J4" end="240" vehsPerHour="117.20760335087033"/>
  <flow id="JF81390" begin="180" fromJunction="J0" toJunction="J2" end="240" vehsPerHour="21.719416994376914"/>
  <flow id="JF81391" begin="180" fromJunction="J4" toJunction="J2" end="240" vehsPerHour="49.74989375209772"/>
  <flow id="JF81392" begin="180" fromJunction="J2" toJunction="J4" end="240" vehsPerHour="80.29153689853935"/>
  <flow id="JF81393" begin="180" fromJunction="J4" toJunction="J3" end="240" vehsPerHour="12.478691800437751"/>
  <flow id="JF81394" begin="180" fromJunction="J4" toJunction="J0" end="240" vehsPerHour="63.47805535640132"/>
  <flow id="JF81395" begin="180" fromJunction="J2" toJunction="J3" end="240" vehsPerHour="82.07279410907074"/>
  <flow id="JF81396" begin="180" fromJunction="J2" toJunction="J0" end="240" vehsPerHour="64.67692340699152"/>
  <flow id="JF81397" begin="240" fromJunction="J3" toJunction="J0" end="300" vehsPerHour="478.95141686486113"/>
  <flow id="JF81398" begin="240" fromJunction="J0" toJunction="J3" end="300" vehsPerHour="27.511338111057377"/>
  <flow id="JF81399" begin="240" fromJunction="J3" toJunction="J4" end="300" vehsPerHour="134.9373621549574"/>
  <flow id="JF81400" begin="240" fromJunction="J3" toJunction="J2" end="300" vehsPerHour="48.11721599151481"/>
  <flow id="JF81401" begin="240" fromJunction="J0" toJunction="J4" end="300" vehsPerHour="37.668117262541074"/>
  <flow id="JF81402" begin="240" fromJunction="J0" toJunction="J2" end="300" vehsPerHour="30.233475414447557"/>
  <flow id="JF81403" begin="300" fromJunction="J3" toJunction="J0" end="360" vehsPerHour="301.1390217483854"/>
  <flow id="JF81404" begin="300" fromJunction="J0" toJunction="J3" end="360" vehsPerHour="70.71358428294364"/>
  <flow id="JF81405" begin="300" fromJunction="J3" toJunction="J4" end="360" vehsPerHour="87.58069370966639"/>
  <flow id="JF81406" begin="300" fromJunction="J3" toJunction="J2" end="360" vehsPerHour="67.45331737924961"/>
  <flow id="JF81407" begin="300" fromJunction="J0" toJunction="J4" end="360" vehsPerHour="94.48162926011058"/>
  <flow id="JF81408" begin="300" fromJunction="J0" toJunction="J2" end="360" vehsPerHour="121.57594255084915"/>
  <flow id="JF81409" begin="300" fromJunction="J4" toJunction="J2" end="360" vehsPerHour="120.23138120370824"/>
  <flow id="JF81410" begin="300" fromJunction="J2" toJunction="J4" end="360" vehsPerHour="94.66558390518497"/>
  <flow id="JF81411" begin="300" fromJunction="J4" toJunction="J3" end="360" vehsPerHour="40.82675225110464"/>
  <flow id="JF81412" begin="300" fromJunction="J4" toJunction="J0" end="360" vehsPerHour="61.49621379608453"/>
  <flow id="JF81413" begin="300" fromJunction="J2" toJunction="J3" end="360" vehsPerHour="78.56032253220327"/>
  <flow id="JF81414" begin="300" fromJunction="J2" toJunction="J0" end="360" vehsPerHour="103.97915005980556"/>
  <flow id="JF81415" begin="360" fromJunction="J3" toJunction="J0" end="420" vehsPerHour="505.88139046064964"/>
  <flow id="JF81416" begin="360" fromJunction="J0" toJunction="J3" end="420" vehsPerHour="498.1512382290932"/>
  <flow id="JF81417" begin="360" fromJunction="J3" toJunction="J4" end="420" vehsPerHour="29.640057150113527"/>
  <flow id="JF81418" begin="360" fromJunction="J3" toJunction="J2" end="420" vehsPerHour="81.35131280174144"/>
  <flow id="JF81419" begin="360" fromJunction="J0" toJunction="J4" end="420" vehsPerHour="122.20316662665637"/>
  <flow id="JF81420" begin="360" fromJunction="J0" toJunction="J2" end="420" vehsPerHour="54.3860853566709"/>
  <flow id="JF81421" begin="420" fromJunction="J3" toJunction="J0" end="480" vehsPerHour="307.8180122364047"/>
  <flow id="JF81422" begin="420" fromJunction="J0" toJunction="J3" end="480" vehsPerHour="90.5258631332675"/>
  <flow id="JF81423" begin="420" fromJunction="J3" toJunction="J4" end="480" vehsPerHour="80.61503319648607"/>
  <flow id="JF81424" begin="420" fromJunction="J3" toJunction="J2" end="480" vehsPerHour="88.01236480600566"/>
  <flow id="JF81425" begin="420" fromJunction="J0" toJunction="J4" end="480" vehsPerHour="108.38154952249249"/>
  <flow id="JF81426" begin="420" fromJunction="J0" toJunction="J2" end="480" vehsPerHour="61.68225580079625"/>
  <flow id="JF81427" begin="480" fromJunction="J3" toJunction="J0" end="540" vehsPerHour="149.13832657131056"/>
  <flow id="JF81428" begin="480" fromJunction="J0" toJunction="J3" end="540" vehsPerHour="372.50673230364885"/>
  <flow id="JF81429" begin="480" fromJunction="J3" toJunction="J4" end="540" vehsPerHour="61.594173720380184"/>
  <flow id="JF81430" begin="480" fromJunction="J3" toJunction="J2" end="540" vehsPerHour="21.556261746626287"/>
  <flow id="JF81431" begin="480" fromJunction="J0" toJunction="J4" end="540" vehsPerHour="3.028174328514843"/>
  <flow id="JF81432" begin="480" fromJunction="J0" toJunction="J2" end="540" vehsPerHour="103.795409979946"/>
  <flow id="JF81433" begin="480" fromJunction="J4" toJunction="J2" end="540" vehsPerHour="42.748587645988465"/>
  <flow id="JF81434" begin="480" fromJunction="J2" toJunction="J4" end="540" vehsPerHour="105.37457332889386"/>
  <flow id="JF81435" begin="480" fromJunction="J4" toJunction="J3" end="540" vehsPerHour="5.952096134340999"/>
  <flow id="JF81436" begin="480" fromJunction="J4" toJunction="J0" end="540" vehsPerHour="136.40584862253309"/>
  <flow id="JF81437" begin="480" fromJunction="J2" toJunction="J3" end="540" vehsPerHour="52.53732806130729"/>
  <flow id="JF81438" begin="480" fromJunction="J2" toJunction="J0" end="540" vehsPerHour="34.25711472440724"/>
  <flow id="JF81439" begin="540" fromJunction="J3" toJunction="J0" end="600" vehsPerHour="119.07688976426698"/>
  <flow id="JF81440" begin="540" fromJunction="J0" toJunction="J3" end="600" vehsPerHour="220.87972058714848"/>
  <flow id="JF81441" begin="540" fromJunction="J3" toJunction="J4" end="600" vehsPerHour="71.16639325179274"/>
  <flow id="JF81442" begin="540" fromJunction="J3" toJunction="J2" end="600" vehsPerHour="91.71434385863463"/>
  <flow id="JF81443" begin="540" fromJunction="J0" toJunction="J4" end="600" vehsPerHour="16.50186127113399"/>
  <flow id="JF81444" begin="540" fromJunction="J0" toJunction="J2" end="600" vehsPerHour="106.8185954858949"/>
  <flow id="JF81445" begin="540" fromJunction="J4" toJunction="J2" end="600" vehsPerHour="132.887041873858"/>
  <flow id="JF81446" begin="540" fromJunction="J2" toJunction="J4" end="600" vehsPerHour="30.128557863848354"/>
  <flow id="JF81447" begin="540" fromJunction="J4" toJunction="J3" end="600" vehsPerHour="65.70492866730288"/>
  <flow id="JF81448" begin="540" fromJunction="J4" toJunction="J0" end="600" vehsPerHour="124.57245027546921"/>
  <flow id="JF81449" begin="540" fromJunction="J2" toJunction="J3" end="600" vehsPerHour="108.82050409328586"/>
  <flow id="JF81450" begin="540" fromJunction="J2" toJunction="J0" end="600" vehsPerHour="131.08116912959895"/>
  <flow id="JF81451" begin="600" fromJunction="J3" toJunction="J0" end="660" vehsPerHour="114.61059186824639"/>
  <flow id="JF81452" begin="600" fromJunction="J0" toJunction="J3" end="660" vehsPerHour="425.09191794736466"/>
  <flow id="JF81453" begin="600" fromJunction="J3" toJunction="J4" end="660" vehsPerHour="68.73221543705552"/>
  <flow id="JF81454" begin="600" fromJunction="J3" toJunction="J2" end="660" vehsPerHour="127.76871704731653"/>
  <flow id="JF81455" begin="600" fromJunction="J0" toJunction="J4" end="660" vehsPerHour="121.62411551807504"/>
  <flow id="JF81456" begin="600" fromJunction="J0" toJunction="J2" end="660" vehsPerHour="31.349769738441022"/>
  <flow id="JF81457" begin="660" fromJunction="J3" toJunction="J0" end="720" vehsPerHour="519.3187786410454"/>
  <flow id="JF81458" begin="660" fromJunction="J0" toJunction="J3" end="720" vehsPerHour="446.2114523243274"/>
  <flow id="JF81459" begin="660" fromJunction="J3" toJunction="J4" end="720" vehsPerHour="120.29950648982653"/>
  <flow id="JF81460" begin="660" fromJunction="J3" toJunction="J2" end="720" vehsPerHour="133.7433326217349"/>
  <flow id="JF81461" begin="660" fromJunction="J0" toJunction="J4" end="720" vehsPerHour="80.74005856341077"/>
  <flow id="JF81462" begin="660" fromJunction="J0" toJunction="J2" end="720" vehsPerHour="94.22678775809061"/>
  <flow id="JF81463" begin="660" fromJunction="J4" toJunction="J2" end="720" vehsPerHour="109.74291172477457"/>
  <flow id="JF81464" begin="660" fromJunction="J2" toJunction="J4" end="720" vehsPerHour="116.95916899481735"/>
  <flow id="JF81465" begin="660" fromJunction="J4" toJunction="J3" end="720" vehsPerHour="123.95379006249486"/>
  <flow id="JF81466" begin="660" fromJunction="J4" toJunction="J0" end="720" vehsPerHour="130.7455811887695"/>
  <flow id="JF81467" begin="660" fromJunction="J2" toJunction="J3" end="720" vehsPerHour="5.678668281372817"/>
  <flow id="JF81468" begin="660" fromJunction="J2" toJunction="J0" end="720" vehsPerHour="38.136530252569756"/>
  <flow id="JF81469" begin="720" fromJunction="J3" toJunction="J0" end="780" vehsPerHour="270.85665639639774"/>
  <flow id="JF81470" begin="720" fromJunction="J0" toJunction="J3" end="780" vehsPerHour="132.50107477956783"/>
  <flow id="JF81471" begin="720" fromJunction="J3" toJunction="J4" end="780" vehsPerHour="46.87894730388471"/>
  <flow id="JF81472" begin="720" fromJunction="J3" toJunction="J2" end="780" vehsPerHour="126.3912923812439"/>
  <flow id="JF81473" begin="720" fromJunction="J0" toJunction="J4" end="780" vehsPerHour="32.017896256629214"/>
  <flow id="JF81474" begin="720" fromJunction="J0" toJunction="J2" end="780" vehsPerHour="18.46755589617724"/>
  <flow id="JF81475" begin="780" fromJunction="J3" toJunction="J0" end="840" vehsPerHour="107.18983907948888"/>
  <flow id="JF81476" begin="780" fromJunction="J0" toJunction="J3" end="840" vehsPerHour="466.86503600230196"/>
  <flow id="JF81477" begin="780" fromJunction="J3" toJunction="J4" end="840" vehsPerHour="35.593407513133926"/>
  <flow id="JF81478" begin="780" fromJunction="J3" toJunction="J2" end="840" vehsPerHour="31.300109254862342"/>
  <flow id="JF81479" begin="780" fromJunction="J0" toJunction="J4" end="840" vehsPerHour="95.35590193867253"/>
  <flow id="JF81480" begin="780" fromJunction="J0" toJunction="J2" end="840" vehsPerHour="123.37939510345788"/>
  <flow id="JF81481" begin="840" fromJunction="J3" toJunction="J0" end="900" vehsPerHour="253.9666381585455"/>
  <flow id="JF81482" begin="840" fromJunction="J0" toJunction="J3" end="900" vehsPerHour="448.83692846378943"/>
  <flow id="JF81483" begin="840" fromJunction="J3" toJunction="J4" end="900" vehsPerHour="66.51737731811184"/>
  <flow id="JF81484" begin="840" fromJunction="J3" toJunction="J2" end="900" vehsPerHour="34.40939812859152"/>
  <flow id="JF81485" begin="840" fromJunction="J0" toJunction="J4" end="900" vehsPerHour="24.82904735448693"/>
  <flow id="JF81486" begin="840" fromJunction="J0" toJunction="J2" end="900" vehsPerHour="100.44804943614473"/>
  <flow id="JF81487" begin="840" fromJunction="J4" toJunction="J2" end="900" vehsPerHour="63.86000011278612"/>
  <flow id="JF81488" begin="840" fromJunction="J2" toJunction="J4" end="900" vehsPerHour="129.29416477763039"/>
  <flow id="JF81489" begin="840" fromJunction="J4" toJunction="J3" end="900" vehsPerHour="77.45205058314157"/>
  <flow id="JF81490" begin="840" fromJunction="J4" toJunction="J0" end="900" vehsPerHour="118.6269639091356"/>
  <flow id="JF81491" begin="840" fromJunction="J2" toJunction="J3" end="900" vehsPerHour="113.58425483656457"/>
  <flow id="JF81492" begin="840" fromJunction="J2" toJunction="J0" end="900" vehsPerHour="124.62841067046192"/>
  <flow id="JF81493" begin="900" fromJunction="J3" toJunction="J0" end="960" vehsPerHour="90.00740058568586"/>
  <flow id="JF81494" begin="900" fromJunction="J0" toJunction="J3" end="960" vehsPerHour="126.63511360913326"/>
  <flow id="JF81495" begin="900" fromJunction="J3" toJunction="J4" end="960" vehsPerHour="39.50851867554454"/>
  <flow id="JF81496" begin="900" fromJunction="J3" toJunction="J2" end="960" vehsPerHour="126.98453325043671"/>
  <flow id="JF81497" begin="900" fromJunction="J0" toJunction="J4" end="960" vehsPerHour="15.398862222879691"/>
  <flow id="JF81498" begin="900" fromJunction="J0" toJunction="J2" end="960" vehsPerHour="53.94629535265544"/>
  <flow id="JF81499" begin="900" fromJunction="J4" toJunction="J2" end="960" vehsPerHour="110.54366121146366"/>
  <flow id="JF81500" begin="900" fromJunction="J2" toJunction="J4" end="960" vehsPerHour="37.85181579609955"/>
  <flow id="JF81501" begin="900" fromJunction="J4" toJunction="J3" end="960" vehsPerHour="57.01267450816431"/>
  <flow id="JF81502" begin="900" fromJunction="J4" toJunction="J0" end="960" vehsPerHour="14.359423230980733"/>
  <flow id="JF81503" begin="900" fromJunction="J2" toJunction="J3" end="960" vehsPerHour="82.56961935304926"/>
  <flow id="JF81504" begin="900" fromJunction="J2" toJunction="J0" end="960" vehsPerHour="77.10996140773725"/>
  <flow id="JF81505" begin="960" fromJunction="J3" toJunction="J0" end="1020" vehsPerHour="18.66885458855121"/>
  <flow id="JF81506" begin="960" fromJunction="J0" toJunction="J3" end="1020" vehsPerHour="354.4687079180697"/>
  <flow id="JF81507" begin="960" fromJunction="J3" toJunction="J4" end="1020" vehsPerHour="76.42813005093168"/>
  <flow id="JF81508" begin="960" fromJunction="J3" toJunction="J2" end="1020" vehsPerHour="70.55912297185677"/>
  <flow id="JF81509" begin="960" fromJunction="J0" toJunction="J4" end="1020" vehsPerHour="122.30785397090732"/>
  <flow id="JF81510" begin="960" fromJunction="J0" toJunction="J2" end="1020" vehsPerHour="43.58491885609708"/>
  <flow id="JF81511" begin="1020" fromJunction="J3" toJunction="J0" end="1080" vehsPerHour="278.8623731928656"/>
  <flow id="JF81512" begin="1020" fromJunction="J0" toJunction="J3" end="1080" vehsPerHour="250.13650817388967"/>
  <flow id="JF81513" begin="1020" fromJunction="J3" toJunction="J4" end="1080" vehsPerHour="113.10118587127113"/>
  <flow id="JF81514" begin="1020" fromJunction="J3" toJunction="J2" end="1080" vehsPerHour="77.67855249237493"/>
  <flow id="JF81515" begin="1020" fromJunction="J0" toJunction="J4" end="1080" vehsPerHour="119.9261977538818"/>
  <flow id="JF81516" begin="1020" fromJunction="J0" toJunction="J2" end="1080" vehsPerHour="3.0749381041395973"/>
  <flow id="JF81517" begin="1020" fromJunction="J4" toJunction="J2" end="1080" vehsPerHour="134.46960624242186"/>
  <flow id="JF81518" begin="1020" fromJunction="J2" toJunction="J4" end="1080" vehsPerHour="134.68829685407607"/>
  <flow id="JF81519" begin="1020" fromJunction="J4" toJunction="J3" end="1080" vehsPerHour="134.11031674079328"/>
  <flow id="JF81520" begin="1020" fromJunction="J4" toJunction="J0" end="1080" vehsPerHour="14.686366603117156"/>
  <flow id="JF81521" begin="1020" fromJunction="J2" toJunction="J3" end="1080" vehsPerHour="52.82477543325262"/>
  <flow id="JF81522" begin="1020" fromJunction="J2" toJunction="J0" end="1080" vehsPerHour="20.75820438185172"/>
  <flow id="JF81523" begin="1080" fromJunction="J3" toJunction="J0" end="1140" vehsPerHour="465.04073624652057"/>
  <flow id="JF81524" begin="1080" fromJunction="J0" toJunction="J3" end="1140" vehsPerHour="489.2454024963211"/>
  <flow id="JF81525" begin="1080" fromJunction="J3" toJunction="J4" end="1140" vehsPerHour="102.55927926464406"/>
  <flow id="JF81526" begin="1080" fromJunction="J3" toJunction="J2" end="1140" vehsPerHour="55.23960560495609"/>
  <flow id="JF81527" begin="1080" fromJunction="J0" toJunction="J4" end="1140" vehsPerHour="7.406009321880684"/>
  <flow id="JF81528" begin="1080" fromJunction="J0" toJunction="J2" end="1140" vehsPerHour="81.26116200153336"/>
  <flow id="JF81529" begin="1080" fromJunction="J4" toJunction="J2" end="1140" vehsPerHour="123.09130553876226"/>
  <flow id="JF81530" begin="1080" fromJunction="J2" toJunction="J4" end="1140" vehsPerHour="108.05882422148511"/>
  <flow id="JF81531" begin="1080" fromJunction="J4" toJunction="J3" end="1140" vehsPerHour="73.42113404041743"/>
  <flow id="JF81532" begin="1080" fromJunction="J4" toJunction="J0" end="1140" vehsPerHour="52.336597260308345"/>
  <flow id="JF81533" begin="1080" fromJunction="J2" toJunction="J3" end="1140" vehsPerHour="6.8950229558150005"/>
  <flow id="JF81534" begin="1080" fromJunction="J2" toJunction="J0" end="1140" vehsPerHour="74.87865837869637"/>
  <flow id="JF81535" begin="1140" fromJunction="J3" toJunction="J0" end="1200" vehsPerHour="485.752928600795"/>
  <flow id="JF81536" begin="1140" fromJunction="J0" toJunction="J3" end="1200" vehsPerHour="242.00509791183333"/>
  <flow id="JF81537" begin="1140" fromJunction="J3" toJunction="J4" end="1200" vehsPerHour="50.975336133099056"/>
  <flow id="JF81538" begin="1140" fromJunction="J3" toJunction="J2" end="1200" vehsPerHour="87.60099936978328"/>
  <flow id="JF81539" begin="1140" fromJunction="J0" toJunction="J4" end="1200" vehsPerHour="71.83266266366422"/>
  <flow id="JF81540" begin="1140" fromJunction="J0" toJunction="J2" end="1200" vehsPerHour="122.15132137048565"/>
  <flow id="JF81541" begin="1140" fromJunction="J4" toJunction="J2" end="1200" vehsPerHour="34.4298127956083"/>
  <flow id="JF81542" begin="1140" fromJunction="J2" toJunction="J4" end="1200" vehsPerHour="32.82263765448766"/>
  <flow id="JF81543" begin="1140" fromJunction="J4" toJunction="J3" end="1200" vehsPerHour="108.86581579088802"/>
  <flow id="JF81544" begin="1140" fromJunction="J4" toJunction="J0" end="1200" vehsPerHour="96.82687207255911"/>
  <flow id="JF81545" begin="1140" fromJunction="J2" toJunction="J3" end="1200" vehsPerHour="113.56440441149917"/>
  <flow id="JF81546" begin="1140" fromJunction="J2" toJunction="J0" end="1200" vehsPerHour="75.27382551917471"/>
  <flow id="JF81547" begin="1200" fromJunction="J3" toJunction="J0" end="1260" vehsPerHour="505.1581772591825"/>
  <flow id="JF81548" begin="1200" fromJunction="J0" toJunction="J3" end="1260" vehsPerHour="166.18151340205307"/>
  <flow id="JF81549" begin="1200" fromJunction="J3" toJunction="J4" end="1260" vehsPerHour="115.35544617298389"/>
  <flow id="JF81550" begin="1200" fromJunction="J3" toJunction="J2" end="1260" vehsPerHour="12.84667441587041"/>
  <flow id="JF81551" begin="1200" fromJunction="J0" toJunction="J4" end="1260" vehsPerHour="97.34911494395821"/>
  <flow id="JF81552" begin="1200" fromJunction="J0" toJunction="J2" end="1260" vehsPerHour="28.727024512191665"/>
  <flow id="JF81553" begin="1200" fromJunction="J4" toJunction="J2" end="1260" vehsPerHour="13.423439193475154"/>
  <flow id="JF81554" begin="1200" fromJunction="J2" toJunction="J4" end="1260" vehsPerHour="82.0302547610731"/>
  <flow id="JF81555" begin="1200" fromJunction="J4" toJunction="J3" end="1260" vehsPerHour="118.69553366894385"/>
  <flow id="JF81556" begin="1200" fromJunction="J4" toJunction="J0" end="1260" vehsPerHour="8.173584726291022"/>
  <flow id="JF81557" begin="1200" fromJunction="J2" toJunction="J3" end="1260" vehsPerHour="35.39314412025354"/>
  <flow id="JF81558" begin="1200" fromJunction="J2" toJunction="J0" end="1260" vehsPerHour="65.61357824619655"/>
  <flow id="JF81559" begin="1260" fromJunction="J3" toJunction="J0" end="1320" vehsPerHour="511.7885013307353"/>
  <flow id="JF81560" begin="1260" fromJunction="J0" toJunction="J3" end="1320" vehsPerHour="253.97417895902316"/>
  <flow id="JF81561" begin="1260" fromJunction="J3" toJunction="J4" end="1320" vehsPerHour="64.61183105329346"/>
  <flow id="JF81562" begin="1260" fromJunction="J3" toJunction="J2" end="1320" vehsPerHour="119.83924928826671"/>
  <flow id="JF81563" begin="1260" fromJunction="J0" toJunction="J4" end="1320" vehsPerHour="67.6220442157122"/>
  <flow id="JF81564" begin="1260" fromJunction="J0" toJunction="J2" end="1320" vehsPerHour="132.9164479644556"/>
  <flow id="JF81565" begin="1260" fromJunction="J4" toJunction="J2" end="1320" vehsPerHour="117.32376076482493"/>
  <flow id="JF81566" begin="1260" fromJunction="J2" toJunction="J4" end="1320" vehsPerHour="116.28812385313304"/>
  <flow id="JF81567" begin="1260" fromJunction="J4" toJunction="J3" end="1320" vehsPerHour="19.190672247580665"/>
  <flow id="JF81568" begin="1260" fromJunction="J4" toJunction="J0" end="1320" vehsPerHour="122.02383382619853"/>
  <flow id="JF81569" begin="1260" fromJunction="J2" toJunction="J3" end="1320" vehsPerHour="37.69710247800732"/>
  <flow id="JF81570" begin="1260" fromJunction="J2" toJunction="J0" end="1320" vehsPerHour="101.10670382035823"/>
  <flow id="JF81571" begin="1320" fromJunction="J3" toJunction="J0" end="1380" vehsPerHour="85.04033197432793"/>
  <flow id="JF81572" begin="1320" fromJunction="J0" toJunction="J3" end="1380" vehsPerHour="270.042979807843"/>
  <flow id="JF81573" begin="1320" fromJunction="J3" toJunction="J4" end="1380" vehsPerHour="69.54469385352441"/>
  <flow id="JF81574" begin="1320" fromJunction="J3" toJunction="J2" end="1380" vehsPerHour="42.016600852248025"/>
  <flow id="JF81575" begin="1320" fromJunction="J0" toJunction="J4" end="1380" vehsPerHour="37.44223404639114"/>
  <flow id="JF81576" begin="1320" fromJunction="J0" toJunction="J2" end="1380" vehsPerHour="62.53469995213566"/>
  <flow id="JF81577" begin="1320" fromJunction="J4" toJunction="J2" end="1380" vehsPerHour="101.0142829542216"/>
  <flow id="JF81578" begin="1320" fromJunction="J2" toJunction="J4" end="1380" vehsPerHour="127.86064764505888"/>
  <flow id="JF81579" begin="1320" fromJunction="J4" toJunction="J3" end="1380" vehsPerHour="80.88074813123619"/>
  <flow id="JF81580" begin="1320" fromJunction="J4" toJunction="J0" end="1380" vehsPerHour="91.62945035831072"/>
  <flow id="JF81581" begin="1320" fromJunction="J2" toJunction="J3" end="1380" vehsPerHour="75.90261903774017"/>
  <flow id="JF81582" begin="1320" fromJunction="J2" toJunction="J0" end="1380" vehsPerHour="104.83925463168414"/>
  <flow id="JF81583" begin="1380" fromJunction="J3" toJunction="J0" end="1440" vehsPerHour="478.80017794313846"/>
  <flow id="JF81584" begin="1380" fromJunction="J0" toJunction="J3" end="1440" vehsPerHour="289.27217181426147"/>
  <flow id="JF81585" begin="1380" fromJunction="J3" toJunction="J4" end="1440" vehsPerHour="70.44925189692809"/>
  <flow id="JF81586" begin="1380" fromJunction="J3" toJunction="J2" end="1440" vehsPerHour="134.80207737094037"/>
  <flow id="JF81587" begin="1380" fromJunction="J0" toJunction="J4" end="1440" vehsPerHour="109.56373402934707"/>
  <flow id="JF81588" begin="1380" fromJunction="J0" toJunction="J2" end="1440" vehsPerHour="110.02939848163825"/>
  <flow id="JF81589" begin="1380" fromJunction="J4" toJunction="J2" end="1440" vehsPerHour="114.4445447339627"/>
  <flow id="JF81590" begin="1380" fromJunction="J2" toJunction="J4" end="1440" vehsPerHour="131.13725942319462"/>
  <flow id="JF81591" begin="1380" fromJunction="J4" toJunction="J3" end="1440" vehsPerHour="130.05709413779846"/>
  <flow id="JF81592" begin="1380" fromJunction="J4" toJunction="J0" end="1440" vehsPerHour="47.20429664125344"/>
  <flow id="JF81593" begin="1380" fromJunction="J2" toJunction="J3" end="1440" vehsPerHour="117.89981510634816"/>
  <flow id="JF81594" begin="1380" fromJunction="J2" toJunction="J0" end="1440" vehsPerHour="96.058684398564"/>
  <flow id="JF81595" begin="1440" fromJunction="J3" toJunction="J0" end="1500" vehsPerHour="443.3511386312349"/>
  <flow id="JF81596" begin="1440" fromJunction="J0" toJunction="J3" end="1500" vehsPerHour="134.2271156575759"/>
  <flow id="JF81597" begin="1440" fromJunction="J3" toJunction="J4" end="1500" vehsPerHour="44.397326926280684"/>
  <flow id="JF81598" begin="1440" fromJunction="J3" toJunction="J2" end="1500" vehsPerHour="5.154715498990408"/>
  <flow id="JF81599" begin="1440" fromJunction="J0" toJunction="J4" end="1500" vehsPerHour="130.41336358063612"/>
  <flow id="JF81600" begin="1440" fromJunction="J0" toJunction="J2" end="1500" vehsPerHour="111.32226414472785"/>
  <flow id="JF81601" begin="1500" fromJunction="J3" toJunction="J0" end="1560" vehsPerHour="1.7559078071937724"/>
  <flow id="JF81602" begin="1500" fromJunction="J0" toJunction="J3" end="1560" vehsPerHour="493.91504072167544"/>
  <flow id="JF81603" begin="1500" fromJunction="J3" toJunction="J4" end="1560" vehsPerHour="10.789123550165119"/>
  <flow id="JF81604" begin="1500" fromJunction="J3" toJunction="J2" end="1560" vehsPerHour="14.907591047579187"/>
  <flow id="JF81605" begin="1500" fromJunction="J0" toJunction="J4" end="1560" vehsPerHour="48.90178826912109"/>
  <flow id="JF81606" begin="1500" fromJunction="J0" toJunction="J2" end="1560" vehsPerHour="28.751933628791782"/>
  <flow id="JF81607" begin="1500" fromJunction="J4" toJunction="J2" end="1560" vehsPerHour="99.61647131459556"/>
  <flow id="JF81608" begin="1500" fromJunction="J2" toJunction="J4" end="1560" vehsPerHour="52.062077563279885"/>
  <flow id="JF81609" begin="1500" fromJunction="J4" toJunction="J3" end="1560" vehsPerHour="1.7619725619662625"/>
  <flow id="JF81610" begin="1500" fromJunction="J4" toJunction="J0" end="1560" vehsPerHour="134.58235473998369"/>
  <flow id="JF81611" begin="1500" fromJunction="J2" toJunction="J3" end="1560" vehsPerHour="110.94974597738461"/>
  <flow id="JF81612" begin="1500" fromJunction="J2" toJunction="J0" end="1560" vehsPerHour="12.280492629452032"/>
  <flow id="JF81613" begin="1560" fromJunction="J3" toJunction="J0" end="1620" vehsPerHour="255.63999376762152"/>
  <flow id="JF81614" begin="1560" fromJunction="J0" toJunction="J3" end="1620" vehsPerHour="263.35645651327155"/>
  <flow id="JF81615" begin="1560" fromJunction="J3" toJunction="J4" end="1620" vehsPerHour="14.554834221946413"/>
  <flow id="JF81616" begin="1560" fromJunction="J3" toJunction="J2" end="1620" vehsPerHour="136.69330448686628"/>
  <flow id="JF81617" begin="1560" fromJunction="J0" toJunction="J4" end="1620" vehsPerHour="14.200698105812533"/>
  <flow id="JF81618" begin="1560" fromJunction="J0" toJunction="J2" end="1620" vehsPerHour="134.05465637681078"/>
  <flow id="JF81619" begin="1560" fromJunction="J4" toJunction="J2" end="1620" vehsPerHour="74.57679364700999"/>