<?xml version="1.0" encoding="UTF-8"?>
<routes xmlns:xsi="http://www.w3.org/2001/XMLSchema-instance" xsi:noNamespaceSchemaLocation="http://sumo.dlr.de/xsd/routes_file.xsd">
  <flow id="JF78271" begin="0" fromJunction="J3" toJunction="J0" end="60" vehsPerHour="459.2882383783353"/>
  <flow id="JF78272" begin="0" fromJunction="J0" toJunction="J3" end="60" vehsPerHour="86.0366522010794"/>
  <flow id="JF78273" begin="0" fromJunction="J3" toJunction="J4" end="60" vehsPerHour="121.20030290714267"/>
  <flow id="JF78274" begin="0" fromJunction="J3" toJunction="J2" end="60" vehsPerHour="103.73363692121197"/>
  <flow id="JF78275" begin="0" fromJunction="J0" toJunction="J4" end="60" vehsPerHour="76.16234583332688"/>
  <flow id="JF78276" begin="0" fromJunction="J0" toJunction="J2" end="60" vehsPerHour="57.620660286158916"/>
  <flow id="JF78277" begin="0" fromJunction="J4" toJunction="J2" end="60" vehsPerHour="83.53694713746391"/>
  <flow id="JF78278" begin="0" fromJunction="J2" toJunction="J4" end="60" vehsPerHour="115.11832947530057"/>
  <flow id="JF78279" begin="0" fromJunction="J4" toJunction="J3" end="60" vehsPerHour="109.78444759640993"/>
  <flow id="JF78280" begin="0" fromJunction="J4" toJunction="J0" end="60" vehsPerHour="133.39927041943625"/>
  <flow id="JF78281" begin="0" fromJunction="J2" toJunction="J3" end="60" vehsPerHour="103.12456584429178"/>
  <flow id="JF78282" begin="0" fromJunction="J2" toJunction="J0" end="60" vehsPerHour="73.10416395067831"/>
  <flow id="JF78283" begin="60" fromJunction="J3" toJunction="J0" end="120" vehsPerHour="209.47529682210998"/>
  <flow id="JF78284" begin="60" fromJunction="J0" toJunction="J3" end="120" vehsPerHour="316.30839668821534"/>
  <flow id="JF78285" begin="60" fromJunction="J3" toJunction="J4" end="120" vehsPerHour="46.36339890451929"/>
  <flow id="JF78286" begin="60" fromJunction="J3" toJunction="J2" end="120" vehsPerHour="22.01841771800383"/>
  <flow id="JF78287" begin="60" fromJunction="J0" toJunction="J4" end="120" vehsPerHour="93.87298102227686"/>
  <flow id="JF78288" begin="60" fromJunction="J0" toJunction="J2" end="120" vehsPerHour="100.0068809437745"/>
  <flow id="JF78289" begin="120" fromJunction="J3" toJunction="J0" end="180" vehsPerHour="343.74547952344074"/>
  <flow id="JF78290" begin="120" fromJunction="J0" toJunction="J3" end="180" vehsPerHour="169.38856293951216"/>
  <flow id="JF78291" begin="120" fromJunction="J3" toJunction="J4" end="180" vehsPerHour="30.11729124097898"/>
  <flow id="JF78292" begin="120" fromJunction="J3" toJunction="J2" end="180" vehsPerHour="25.025045993631753"/>
  <flow id="JF78293" begin="120" fromJunction="J0" toJunction="J4" end="180" vehsPerHour="46.21103976489511"/>
  <flow id="JF78294" begin="120" fromJunction="J0" toJunction="J2" end="180" vehsPerHour="2.9135320422641375"/>
  <flow id="JF78295" begin="120" fromJunction="J4" toJunction="J2" end="180" vehsPerHour="136.0477371002569"/>
  <flow id="JF78296" begin="120" fromJunction="J2" toJunction="J4" end="180" vehsPerHour="6.954000862959584"/>
  <flow id="JF78297" begin="120" fromJunction="J4" toJunction="J3" end="180" vehsPerHour="66.08283014565822"/>
  <flow id="JF78298" begin="120" fromJunction="J4" toJunction="J0" end="180" vehsPerHour="117.24890601371823"/>
  <flow id="JF78299" begin="120" fromJunction="J2" toJunction="J3" end="180" vehsPerHour="129.26135256832362"/>
  <flow id="JF78300" begin="120" fromJunction="J2" toJunction="J0" end="180" vehsPerHour="20.103096241778015"/>
  <flow id="JF78301" begin="180" fromJunction="J3" toJunction="J0" end="240" vehsPerHour="276.70118416601406"/>
  <flow id="JF78302" begin="180" fromJunction="J0" toJunction="J3" end="240" vehsPerHour="441.45382681670816"/>
  <flow id="JF78303" begin="180" fromJunction="J3" toJunction="J4" end="240" vehsPerHour="81.36541477701394"/>
  <flow id="JF78304" begin="180" fromJunction="J3" toJunction="J2" end="240" vehsPerHour="36.02216637592515"/>
  <flow id="JF78305" begin="180" fromJunction="J0" toJunction="J4" end="240" vehsPerHour="70.03589375347502"/>
  <flow id="JF78306" begin="180" fromJunction="J0" toJunction="J2" end="240" vehsPerHour="119.29440260927687"/>
  <flow id="JF78307" begin="240" fromJunction="J3" toJunction="J0" end="300" vehsPerHour="87.40316121613834"/>
  <flow id="JF78308" begin="240" fromJunction="J0" toJunction="J3" end="300" vehsPerHour="452.17273329106655"/>
  <flow id="JF78309" begin="240" fromJunction="J3" toJunction="J4" end="300" vehsPerHour="77.11176786521618"/>
  <flow id="JF78310" begin="240" fromJunction="J3" toJunction="J2" end="300" vehsPerHour="59.398600574448935"/>
  <flow id="JF78311" begin="240" fromJunction="J0" toJunction="J4" end="300" vehsPerHour="80.28980399504111"/>
  <flow id="JF78312" begin="240" fromJunction="J0" toJunction="J2" end="300" vehsPerHour="44.072905367098286"/>
  <flow id="JF78313" begin="240" fromJunction="J4" toJunction="J2" end="300" vehsPerHour="54.18133297722893"/>
  <flow id="JF78314" begin="240" fromJunction="J2" toJunction="J4" end="300" vehsPerHour="39.2232595407089"/>
  <flow id="JF78315" begin="240" fromJunction="J4" toJunction="J3" end="300" vehsPerHour="21.417547165833923"/>
  <flow id="JF78316" begin="240" fromJunction="J4" toJunction="J0" end="300" vehsPerHour="115.10123596749737"/>
  <flow id="JF78317" begin="240" fromJunction="J2" toJunction="J3" end="300" vehsPerHour="60.91866320622866"/>
  <flow id="JF78318" begin="240" fromJunction="J2" toJunction="J0" end="300" vehsPerHour="44.429612982931154"/>
  <flow id="JF78319" begin="300" fromJunction="J3" toJunction="J0" end="360" vehsPerHour="273.6026334206172"/>
  <flow id="JF78320" begin="300" fromJunction="J0" toJunction="J3" end="360" vehsPerHour="72.48702034883198"/>
  <flow id="JF78321" begin="300" fromJunction="J3" toJunction="J4" end="360" vehsPerHour="99.48820694633689"/>
  <flow id="JF78322" begin="300" fromJunction="J3" toJunction="J2" end="360" vehsPerHour="0.9283369817128236"/>
  <flow id="JF78323" begin="300" fromJunction="J0" toJunction="J4" end="360" vehsPerHour="9.038391289547047"/>
  <flow id="JF78324" begin="300" fromJunction="J0" toJunction="J2" end="360" vehsPerHour="101.17802165126326"/>
  <flow id="JF78325" begin="300" fromJunction="J4" toJunction="J2" end="360" vehsPerHour="6.172373689212467"/>
  <flow id="JF78326" begin="300" fromJunction="J2" toJunction="J4" end="360" vehsPerHour="45.98438089696835"/>
  <flow id="JF78327" begin="300" fromJunction="J4" toJunction="J3" end="360" vehsPerHour="56.38732513779334"/>
  <flow id="JF78328" begin="300" fromJunction="J4" toJunction="J0" end="360" vehsPerHour="44.223278924627905"/>
  <flow id="JF78329" begin="300" fromJunction="J2" toJunction="J3" end="360" vehsPerHour="121.05274109569388"/>
  <flow id="JF78330" begin="300" fromJunction="J2" toJunction="J0" end="360" vehsPerHour="61.57166476475036"/>
  <flow id="JF78331" begin="360" fromJunction="J3" toJunction="J0" end="420" vehsPerHour="198.18742292495904"/>
  <flow id="JF78332" begin="360" fromJunction="J0" toJunction="J3" end="420" vehsPerHour="278.2203976305995"/>
  <flow id="JF78333" begin="360" fromJunction="J3" toJunction="J4" end="420" vehsPerHour="48.95127581042796"/>
  <flow id="JF78334" begin="360" fromJunction="J3" toJunction="J2" end="420" vehsPerHour="95.32342831154334"/>
  <flow id="JF78335" begin="360" fromJunction="J0" toJunction="J4" end="420" vehsPerHour="43.01836194536875"/>
  <flow id="JF78336" begin="360" fromJunction="J0" toJunction="J2" end="420" vehsPerHour="41.823683096046366"/>
  <flow id="JF78337" begin="420" fromJunction="J3" toJunction="J0" end="480" vehsPerHour="145.83386493150584"/>
  <flow id="JF78338" begin="420" fromJunction="J0" toJunction="J3" end="480" vehsPerHour="321.54559159023074"/>
  <flow id="JF78339" begin="420" fromJunction="J3" toJunction="J4" end="480" vehsPerHour="90.4465111345327"/>
  <flow id="JF78340" begin="420" fromJunction="J3" toJunction="J2" end="480" vehsPerHour="82.12043314315184"/>
  <flow id="JF78341" begin="420" fromJunction="J0" toJunction="J4" end="480" vehsPerHour="87.07153866329254"/>
  <flow id="JF78342" begin="420" fromJunction="J0" toJunction="J2" end="480" vehsPerHour="128.54929382809053"/>
  <flow id="JF78343" begin="420" fromJunction="J4" toJunction="J2" end="480" vehsPerHour="130.7816735520956"/>
  <flow id="JF78344" begin="420" fromJunction="J2" toJunction="J4" end="480" vehsPerHour="133.5029979692522"/>
  <flow id="JF78345" begin="420" fromJunction="J4" toJunction="J3" end="480" vehsPerHour="45.47016574791067"/>
  <flow id="JF78346" begin="420" fromJunction="J4" toJunction="J0" end="480" vehsPerHour="133.64086645820393"/>
  <flow id="JF78347" begin="420" fromJunction="J2" toJunction="J3" end="480" vehsPerHour="45.818285006593925"/>
  <flow id="JF78348" begin="420" fromJunction="J2" toJunction="J0" end="480" vehsPerHour="121.93891727467779"/>
  <flow id="JF78349" begin="480" fromJunction="J3" toJunction="J0" end="540" vehsPerHour="264.5112215422817"/>
  <flow id="JF78350" begin="480" fromJunction="J0" toJunction="J3" end="540" vehsPerHour="357.2928381539408"/>
  <flow id="JF78351" begin="480" fromJunction="J3" toJunction="J4" end="540" vehsPerHour="6.810434303444777"/>
  <flow id="JF78352" begin="480" fromJunction="J3" toJunction="J2" end="540" vehsPerHour="76.53168638079408"/>
  <flow id="JF78353" begin="480" fromJunction="J0" toJunction="J4" end="540" vehsPerHour="71.16921409174459"/>
  <flow id="JF78354" begin="480" fromJunction="J0" toJunction="J2" end="540" vehsPerHour="9.867763683888837"/>
  <flow id="JF78355" begin="480" fromJunction="J4" toJunction="J2" end="540" vehsPerHour="26.160715457856842"/>
  <flow id="JF78356" begin="480" fromJunction="J2" toJunction="J4" end="540" vehsPerHour="76.23142797288438"/>
  <flow id="JF78357" begin="480" fromJunction="J4" toJunction="J3" end="540" vehsPerHour="45.21500909958887"/>
  <flow id="JF78358" begin="480" fromJunction="J4" toJunction="J0" end="540" vehsPerHour="63.164613274182116"/>
  <flow id="JF78359" begin="480" fromJunction="J2" toJunction="J3" end="540" vehsPerHour="17.047112417759514"/>
  <flow id="JF78360" begin="480" fromJunction="J2" toJunction="J0" end="540" vehsPerHour="98.76548278860554"/>
  <flow id="JF78361" begin="540" fromJunction="J3" toJunction="J0" end="600" vehsPerHour="187.29179321418783"/>
  <flow id="JF78362" begin="540" fromJunction="J0" toJunction="J3" end="600" vehsPerHour="461.74626556024924"/>
  <flow id="JF78363" begin="540" fromJunction="J3" toJunction="J4" end="600" vehsPerHour="38.42414883898078"/>
  <flow id="JF78364" begin="540" fromJunction="J3" toJunction="J2" end="600" vehsPerHour="4.004301783948777"/>
  <flow id="JF78365" begin="540" fromJunction="J0" toJunction="J4" end="600" vehsPerHour="7.84378132707119"/>
  <flow id="JF78366" begin="540" fromJunction="J0" toJunction="J2" end="600" vehsPerHour="14.572032115852767"/>
  <flow id="JF78367" begin="540" fromJunction="J4" toJunction="J2" end="600" vehsPerHour="17.40273741164698"/>
  <flow id="JF78368" begin="540" fromJunction="J2" toJunction="J4" end="600" vehsPerHour="39.238004229144956"/>
  <flow id="JF78369" begin="540" fromJunction="J4" toJunction="J3" end="600" vehsPerHour="119.29802172454244"/>
  <flow id="JF78370" begin="540" fromJunction="J4" toJunction="J0" end="600" vehsPerHour="53.3204099678029"/>
  <flow id="JF78371" begin="540" fromJunction="J2" toJunction="J3" end="600" vehsPerHour="92.90904395135216"/>
  <flow id="JF78372" begin="540" fromJunction="J2" toJunction="J0" end="600" vehsPerHour="110.98511849962563"/>
  <flow id="JF78373" begin="600" fromJunction="J3" toJunction="J0" end="660" vehsPerHour="454.13779996846193"/>
  <flow id="JF78374" begin="600" fromJunction="J0" toJunction="J3" end="660" vehsPerHour="174.6243080996383"/>
  <flow id="JF78375" begin="600" fromJunction="J3" toJunction="J4" end="660" vehsPerHour="11.789064158226823"/>
  <flow id="JF78376" begin="600" fromJunction="J3" toJunction="J2" end="660" vehsPerHour="51.30669591801993"/>
  <flow id="JF78377" begin="600" fromJunction="J0" toJunction="J4" end="660" vehsPerHour="91.47612532054684"/>
  <flow id="JF78378" begin="600" fromJunction="J0" toJunction="J2" end="660" vehsPerHour="18.139470051415646"/>
  <flow id="JF78379" begin="600" fromJunction="J4" toJunction="J2" end="660" vehsPerHour="50.36297180808459"/>
  <flow id="JF78380" begin="600" fromJunction="J2" toJunction="J4" end="660" vehsPerHour="3.9533982261763283"/>
  <flow id="JF78381" begin="600" fromJunction="J4" toJunction="J3" end="660" vehsPerHour="0.09667960111683704"/>
  <flow id="JF78382" begin="600" fromJunction="J4" toJunction="J0" end="660" vehsPerHour="57.7279525645799"/>
  <flow id="JF78383" begin="600" fromJunction="J2" toJunction="J3" end="660" vehsPerHour="15.690640241573854"/>
  <flow id="JF78384" begin="600" fromJunction="J2" toJunction="J0" end="660" vehsPerHour="88.86607650518509"/>
  <flow id="JF78385" begin="660" fromJunction="J3" toJunction="J0" end="720" vehsPerHour="164.2336524251638"/>
  <flow id="JF78386" begin="660" fromJunction="J0" toJunction="J3" end="720" vehsPerHour="243.61699667364337"/>
  <flow id="JF78387" begin="660" fromJunction="J3" toJunction="J4" end="720" vehsPerHour="83.68609682724025"/>
  <flow id="JF78388" begin="660" fromJunction="J3" toJunction="J2" end="720" vehsPerHour="85.50277343889871"/>
  <flow id="JF78389" begin="660" fromJunction="J0" toJunction="J4" end="720" vehsPerHour="45.36421359339179"/>
  <flow id="JF78390" begin="660" fromJunction="J0" toJunction="J2" end="720" vehsPerHour="61.55179709164478"/>
  <flow id="JF78391" begin="720" fromJunction="J3" toJunction="J0" end="780" vehsPerHour="328.75776947768554"/>
  <flow id="JF78392" begin="720" fromJunction="J0" toJunction="J3" end="780" vehsPerHour="111.64628161493951"/>
  <flow id="JF78393" begin="720" fromJunction="J3" toJunction="J4" end="780" vehsPerHour="77.03217907871293"/>
  <flow id="JF78394" begin="720" fromJunction="J3" toJunction="J2" end="780" vehsPerHour="67.7095979386198"/>
  <flow id="JF78395" begin="720" fromJunction="J0" toJunction="J4" end="780" vehsPerHour="70.24220783065047"/>
  <flow id="JF78396" begin="720" fromJunction="J0" toJunction="J2" end="780" vehsPerHour="26.17054671693686"/>
  <flow id="JF78397" begin="720" fromJunction="J4" toJunction="J2" end="780" vehsPerHour="15.620755021639093"/>
  <flow id="JF78398" begin="720" fromJunction="J2" toJunction="J4" end="780" vehsPerHour="14.467117595772768"/>
  <flow id="JF78399" begin="720" fromJunction="J4" toJunction="J3" end="780" vehsPerHour="78.4242860114358"/>
  <flow id="JF78400" begin="720" fromJunction="J4" toJunction="J0" end="780" vehsPerHour="13.376894683436884"/>
  <flow id="JF78401" begin="720" fromJunction="J2" toJunction="J3" end="780" vehsPerHour="38.41787659723584"/>
  <flow id="JF78402" begin="720" fromJunction="J2" toJunction="J0" end="780" vehsPerHour="2.429877287335061"/>
  <flow id="JF78403" begin="780" fromJunction="J3" toJunction="J0" end="840" vehsPerHour="437.9308955970595"/>
  <flow id="JF78404" begin="780" fromJunction="J0" toJunction="J3" end="840" vehsPerHour="157.9429787480879"/>
  <flow id="JF78405" begin="780" fromJunction="J3" toJunction="J4" end="840" vehsPerHour="35.75012360809126"/>
  <flow id="JF78406" begin="780" fromJunction="J3" toJunction="J2" end="840" vehsPerHour="99.16562811212496"/>
  <flow id="JF78407" begin="780" fromJunction="J0" toJunction="J4" end="840" vehsPerHour="41.749214821834734"/>
  <flow id="JF78408" begin="780" fromJunction="J0" toJunction="J2" end="840" vehsPerHour="135.144598474545"/>
  <flow id="JF78409" begin="780" fromJunction="J4" toJunction="J2" end="840" vehsPerHour="122.20484330149722"/>
  <flow id="JF78410" begin="780" fromJunction="J2" toJunction="J4" end="840" vehsPerHour="72.96876823508175"/>
  <flow id="JF78411" begin="780" fromJunction="J4" toJunction="J3" end="840" vehsPerHour="53.70935127741555"/>
  <flow id="JF78412" begin="780" fromJunction="J4" toJunction="J0" end="840" vehsPerHour="75.82648015541955"/>
  <flow id="JF78413" begin="780" fromJunction="J2" toJunction="J3" end="840" vehsPerHour="77.51808576508039"/>
  <flow id="JF78414" begin="780" fromJunction="J2" toJunction="J0" end="840" vehsPerHour="44.88329966485707"/>
  <flow id="JF78415" begin="840" fromJunction="J3" toJunction="J0" end="900" vehsPerHour="320.0389034014728"/>
  <flow id="JF78416" begin="840" fromJunction="J0" toJunction="J3" end="900" vehsPerHour="103.86550143125307"/>
  <flow id="JF78417" begin="840" fromJunction="J3" toJunction="J4" end="900" vehsPerHour="113.16849343277991"/>
  <flow id="JF78418" begin="840" fromJunction="J3" toJunction="J2" end="900" vehsPerHour="21.19767026898244"/>
  <flow id="JF78419" begin="840" fromJunction="J0" toJunction="J4" end="900" vehsPerHour="33.5826581176342"/>
  <flow id="JF78420" begin="840" fromJunction="J0" toJunction="J2" end="900" vehsPerHour="96.13168574364009"/>
  <flow id="JF78421" begin="840" fromJunction="J4" toJunction="J2" end="900" vehsPerHour="26.616336536433145"/>
  <flow id="JF78422" begin="840" fromJunction="J2" toJunction="J4" end="900" vehsPerHour="14.932802941275611"/>
  <flow id="JF78423" begin="840" fromJunction="J4" toJunction="J3" end="900" vehsPerHour="35.441220534525634"/>
  <flow id="JF78424" begin="840" fromJunction="J4" toJunction="J0" end="900" vehsPerHour="80.46546036484176"/>
  <flow id="JF78425" begin="840" fromJunction="J2" toJunction="J3" end="900" vehsPerHour="103.79373321162164"/>
  <flow id="JF78426" begin="840" fromJunction="J2" toJunction="J0" end="900" vehsPerHour="120.56114489896449"/>
  <flow id="JF78427" begin="900" fromJunction="J3" toJunction="J0" end="960" vehsPerHour="367.21135873374345"/>
  <flow id="JF78428" begin="900" fromJunction="J0" toJunction="J3" end="960" vehsPerHour="35.92369501620387"/>
  <flow id="JF78429" begin="900" fromJunction="J3" toJunction="J4" end="960" vehsPerHour="37.788762095067305"/>
  <flow id="JF78430" begin="900" fromJunction="J3" toJunction="J2" end="960" vehsPerHour="5.073795158087479"/>
  <flow id="JF78431" begin="900" fromJunction="J0" toJunction="J4" end="960" vehsPerHour="19.664184673191176"/>
  <flow id="JF78432" begin="900" fromJunction="J0" toJunction="J2" end="960" vehsPerHour="6.6877818244546905"/>
  <flow id="JF78433" begin="960" fromJunction="J3" toJunction="J0" end="1020" vehsPerHour="14.586141949403057"/>
  <flow id="JF78434" begin="960" fromJunction="J0" toJunction="J3" end="1020" vehsPerHour="140.7471374602753"/>
  <flow id="JF78435" begin="960" fromJunction="J3" toJunction="J4" end="1020" vehsPerHour="82.7755501872119"/>
  <flow id="JF78436" begin="960" fromJunction="J3" toJunction="J2" end="1020" vehsPerHour="10.66762356374781"/>
  <flow id="JF78437" begin="960" fromJunction="J0" toJunction="J4" end="1020" vehsPerHour="58.98568809409728"/>
  <flow id="JF78438" begin="960" fromJunction="J0" toJunction="J2" end="1020" vehsPerHour="34.51949752134775"/>
  <flow id="JF78439" begin="960" fromJunction="J4" toJunction="J2" end="1020" vehsPerHour="133.66217596970725"/>
  <flow id="JF78440" begin="960" fromJunction="J2" toJunction="J4" end="1020" vehsPerHour="51.66378483278469"/>
  <flow id="JF78441" begin="960" fromJunction="J4" toJunction="J3" end="1020" vehsPerHour="108.5877848202587"/>
  <flow id="JF78442" begin="960" fromJunction="J4" toJunction="J0" end="1020" vehsPerHour="19.30721503087407"/>
  <flow id="JF78443" begin="960" fromJunction="J2" toJunction="J3" end="1020" vehsPerHour="69.12953595685657"/>
  <flow id="JF78444" begin="960" fromJunction="J2" toJunction="J0" end="1020" vehsPerHour="100.2471368543465"/>
  <flow id="JF78445" begin="1020" fromJunction="J3" toJunction="J0" end="1080" vehsPerHour="425.48024832402643"/>
  <flow id="JF78446" begin="1020" fromJunction="J0" toJunction="J3" end="1080" vehsPerHour="54.54153622718449"/>
  <flow id="JF78447" begin="1020" fromJunction="J3" toJunction="J4" end="1080" vehsPerHour="91.66483048244767"/>
  <flow id="JF78448" begin="1020" fromJunction="J3" toJunction="J2" end="1080" vehsPerHour="107.30370372250864"/>
  <flow id="JF78449" begin="1020" fromJunction="J0" toJunction="J4" end="1080" vehsPerHour="107.04351566376697"/>
  <flow id="JF78450" begin="1020" fromJunction="J0" toJunction="J2" end="1080" vehsPerHour="4.324420951520902"/>
  <flow id="JF78451" begin="1080" fromJunction="J3" toJunction="J0" end="1140" vehsPerHour="481.52042076925136"/>
  <flow id="JF78452" begin="1080" fromJunction="J0" toJunction="J3" end="1140" vehsPerHour="526.2677853107099"/>
  <flow id="JF78453" begin="1080" fromJunction="J3" toJunction="J4" end="1140" vehsPerHour="14.182819453121185"/>
  <flow id="JF78454" begin="1080" fromJunction="J3" toJunction="J2" end="1140" vehsPerHour="4.360554400918891"/>
  <flow id="JF78455" begin="1080" fromJunction="J0" toJunction="J4" end="1140" vehsPerHour="99.59724033867998"/>
  <flow id="JF78456" begin="1080" fromJunction="J0" toJunction="J2" end="1140" vehsPerHour="122.59984532280819"/>
  <flow id="JF78457" begin="1080" fromJunction="J4" toJunction="J2" end="1140" vehsPerHour="38.48695119513266"/>
  <flow id="JF78458" begin="1080" fromJunction="J2" toJunction="J4" end="1140" vehsPerHour="86.51207786401"/>
  <flow id="JF78459" begin="1080" fromJunction="J4" toJunction="J3" end="1140" vehsPerHour="87.28005698776838"/>
  <flow id="JF78460" begin="1080" fromJunction="J4" toJunction="J0" end="1140" vehsPerHour="119.01680964036632"/>
  <flow id="JF78461" begin="1080" fromJunction="J2" toJunction="J3" end="1140" vehsPerHour="22.1730494560678"/>
  <flow id="JF78462" begin="1080" fromJunction="J2" toJunction="J0" end="1140" vehsPerHour="35.20951129458441"/>
  <flow id="JF78463" begin="1140" fromJunction="J3" toJunction="J0" end="1200" vehsPerHour="243.2024744855393"/>
  <flow id="JF78464" begin="1140" fromJunction="J0" toJunction="J3" end="1200" vehsPerHour="314.3145670402573"/>
  <flow id="JF78465" begin="1140" fromJunction="J3" toJunction="J4" end="1200" vehsPerHour="87.91874799857042"/>
  <flow id="JF78466" begin="1140" fromJunction="J3" toJunction="J2" end="1200" vehsPerHour="1.4857307866860916"/>
  <flow id="JF78467" begin="1140" fromJunction="J0" toJunction="J4" end="1200" vehsPerHour="100.07341854554109"/>
  <flow id="JF78468" begin="1140" fromJunction="J0" toJunction="J2" end="1200" vehsPerHour="118.06216318545795"/>
  <flow id="JF78469" begin="1200" fromJunction="J3" toJunction="J0" end="1260" vehsPerHour="474.68498631875707"/>
  <flow id="JF78470" begin="1200" fromJunction="J0" toJunction="J3" end="1260" vehsPerHour="524.4316043966325"/>
  <flow id="JF78471" begin="1200" fromJunction="J3" toJunction="J4" end="1260" vehsPerHour="108.17635387902497"/>
  <flow id="JF78472" begin="1200" fromJunction="J3" toJunction="J2" end="1260" vehsPerHour="71.316277987261"/>
  <flow id="JF78473" begin="1200" fromJunction="J0" toJunction="J4" end="1260" vehsPerHour="63.488823579631934"/>
  <flow id="JF78474" begin="1200" fromJunction="J0" toJunction="J2" end="1260" vehsPerHour="5.727554539629152"/>
  <flow id="JF78475" begin="1200" fromJunction="J4" toJunction="J2" end="1260" vehsPerHour="42.52718776747367"/>
  <flow id="JF78476" begin="1200" fromJunction="J2" toJunction="J4" end="1260" vehsPerHour="20.853885447826638"/>
  <flow id="JF78477" begin="1200" fromJunction="J4" toJunction="J3" end="1260" vehsPerHour="44.36361975720373"/>
  <flow id="JF78478" begin="1200" fromJunction="J4" toJunction="J0" end="1260" vehsPerHour="137.36584051684534"/>
  <flow id="JF78479" begin="1200" fromJunction="J2" toJunction="J3" end="1260" vehsPerHour="91.06835879010612"/>
  <flow id="JF78480" begin="1200" fromJunction="J2" toJunction="J0" end="1260" vehsPerHour="67.35052856412057"/>
  <flow id="JF78481" begin="1260" fromJunction="J3" toJunction="J0" end="1320" vehsPerHour="479.68103338374954"/>
  <flow id="JF78482" begin="1260" fromJunction="J0" toJunction="J3" end="1320" vehsPerHour="516.4974183270497"/>
  <flow id="JF78483" begin="1260" fromJunction="J3" toJunction="J4" end="1320" vehsPerHour="61.549218850496956"/>
  <flow id="JF78484" begin="1260" fromJunction="J3" toJunction="J2" end="1320" vehsPerHour="21.346574088835233"/>
  <flow id="JF78485" begin="1260" fromJunction="J0" toJunction="J4" end="1320" vehsPerHour="88.70383716271094"/>
  <flow id="JF78486" begin="1260" fromJunction="J0" toJunction="J2" end="1320" vehsPerHour="5.580703951471699"/>
  <flow id="JF78487" begin="1260" fromJunction="J4" toJunction="J2" end="1320" vehsPerHour="74.34294556539419"/>
  <flow id="JF78488" begin="1260" fromJunction="J2" toJunction="J4" end="1320" vehsPerHour="123.63297468752047"/>
  <flow id="JF78489" begin="1260" fromJunction="J4" toJunction="J3" end="1320" vehsPerHour="21.098125357276473"/>
  <flow id="JF78490" begin="1260" fromJunction="J4" toJunction="J0" end="1320" vehsPerHour="41.830952997940216"/>
  <flow id="JF78491" begin="1260" fromJunction="J2" toJunction="J3" end="1320" vehsPerHour="117.66926084354088"/>
  <flow id="JF78492" begin="1260" fromJunction="J2" toJunction="J0" end="1320" vehsPerHour="44.09181324641635"/>
  <flow id="JF78493" begin="1320" fromJunction="J3" toJunction="J0" end="1380" vehsPerHour="267.2629084298067"/>
  <flow id="JF78494" begin="1320" fromJunction="J0" toJunction="J3" end="1380" vehsPerHour="117.92896964144629"/>
  <flow id="JF78495" begin="1320" fromJunction="J3" toJunction="J4" end="1380" vehsPerHour="47.15959085605868"/>
  <flow id="JF78496" begin="1320" fromJunction="J3" toJunction="J2" end="1380" vehsPerHour="78.81105454357834"/>
  <flow id="JF78497" begin="1320" fromJunction="J0" toJunction="J4" end="1380" vehsPerHour="34.913648992152034"/>
  <flow id="JF78498" begin="1320" fromJunction="J0" toJunction="J2" end="1380" vehsPerHour="50.03475997757037"/>
  <flow id="JF78499" begin="1320" fromJunction="J4" toJunction="J2" end="1380" vehsPerHour="54.123989131970426"/>
  <flow id="JF78500" begin="1320" fromJunction="J2" toJunction="J4" end="1380" vehsPerHour="17.373273843998394"/>
  <flow id="JF78501" begin="1320" fromJunction="J4" toJunction="J3" end="1380" vehsPerHour="60.47140357922622"/>
  <flow id="JF78502" begin="1320" fromJunction="J4" toJunction="J0" end="1380" vehsPerHour="9.57726026731243"/>
  <flow id="JF78503" begin="1320" fromJunction="J2" toJunction="J3" end="1380" vehsPerHour="12.419513725272044"/>
  <flow id="JF78504" begin="1320" fromJunction="J2" toJunction="J0" end="1380" vehsPerHour="133.68534278790162"/>
  <flow id="JF78505" begin="1380" fromJunction="J3" toJunction="J0" end="1440" vehsPerHour="100.70956201864327"/>
  <flow id="JF78506" begin="1380" fromJunction="J0" toJunction="J3" end="1440" vehsPerHour="521.2823349381042"/>
  <flow id="JF78507" begin="1380" fromJunction="J3" toJunction="J4" end="1440" vehsPerHour="97.69471230691254"/>
  <flow id="JF78508" begin="1380" fromJunction="J3" toJunction="J2" end="1440" vehsPerHour="75.72688816435695"/>
  <flow id="JF78509" begin="1380" fromJunction="J0" toJunction="J4" end="1440" vehsPerHour="16.356412951168007"/>
  <flow id="JF78510" begin="1380" fromJunction="J0" toJunction="J2" end="1440" vehsPerHour="21.677466642468918"/>
  <flow id="JF78511" begin="1380" fromJunction="J4" toJunction="J2" end="1440" vehsPerHour="23.668013705510482"/>
  <flow id="JF78512" begin="1380" fromJunction="J2" toJunction="J4" end="1440" vehsPerHour="17.0258510271965"/>
  <flow id="JF78513" begin="1380" fromJunction="J4" toJunction="J3" end="1440" vehsPerHour="97.56757722193557"/>
  <flow id="JF78514" begin="1380" fromJunction="J4" toJunction="J0" end="1440" vehsPerHour="86.57543043135345"/>
  <flow id="JF78515" begin="1380" fromJunction="J2" toJunction="J3" end="1440" vehsPerHour="121.46625501957047"/>
  <flow id="JF78516" begin="1380" fromJunction="J2" toJunction="J0" end="1440" vehsPerHour="57.689534844825495"/>
  <flow id="JF78517" begin="1440" fromJunction="J3" toJunction="J0" end="1500" vehsPerHour="143.63046249905685"/>
  <flow id="JF78518" begin="1440" fromJunction="J0" toJunction="J3" end="1500" vehsPerHour="186.17378274618298"/>
  <flow id="JF78519" begin="1440" fromJunction="J3" toJunction="J4" end="1500" vehsPerHour="118.81959911770925"/>
  <flow id="JF78520" begin="1440" fromJunction="J3" toJunction="J2" end="1500" vehsPerHour="7.6482393820025845"/>
  <flow id="JF78521" begin="1440" fromJunction="J0" toJunction="J4" end="1500" vehsPerHour="71.92504876862827"/>
  <flow id="JF78522" begin="1440" fromJunction="J0" toJunction="J2" end="1500" vehsPerHour="82.88405494758493"/>
  <flow id="JF78523" begin="1440" fromJunction="J4" toJunction="J2" end="1500" vehsPerHour="20.283100047475283"/>
  <flow id="JF78524" begin="1440" fromJunction="J2" toJunction="J4" end="1500" vehsPerHour="33.73859682743896"/>
  <flow id="JF78525" begin="1440" fromJunction="J4" toJunction="J3" end="1500" vehsPerHour="112.88494647885284"/>
  <flow id="JF78526" begin="1440" fromJunction="J4" toJunction="J0" end="1500" vehsPerHour="74.67912614513637"/>
  <flow id="JF78527" begin="1440" fromJunction="J2" toJunction="J3" end="1500" vehsPerHour="136.94660843323072"/>
  <flow id="JF78528" begin="1440" fromJunction="J2" toJunction="J0" end="1500" vehsPerHour="69.93022932550052"/>
  <flow id="JF78529" begin="1500" fromJunction="J3" toJunction="J0" end="1560" vehsPerHour="97.71167494663422"/>
  <flow id="JF78530" begin="1500" fromJunction="J0" toJunction="J3" end="1560" vehsPerHour="134.05429289433084"/>
  <flow id="JF78531" begin="1500" fromJunction="J3" toJunction="J4" end="1560" vehsPerHour="86.16456290473974"/>
  <flow id="JF78532" begin="1500" fromJunction="J3" toJunction="J2" end="1560" vehsPerHour="17.05765654000762"/>
  <flow id="JF78533" begin="1500" fromJunction="J0" toJunction="J4" end="1560" vehsPerHour="44.2014811500314"/>
  <flow id="JF78534" begin="1500" fromJunction="J0" toJunction="J2" end="1560" vehsPerHour="81.34525671519131"/>
  <flow id="JF78535" begin="1500" fromJunction="J4" toJunction="J2" end="1560" vehsPerHour="119.68562989074971"/>
  <flow id="JF78536" begin="1500" fromJunction="J2" toJunction="J4" end="1560" vehsPerHour="17.434579476164405"/>