<?xml version="1.0" encoding="UTF-8"?>
<routes xmlns:xsi="http://www.w3.org/2001/XMLSchema-instance" xsi:noNamespaceSchemaLocation="http://sumo.dlr.de/xsd/routes_file.xsd">
  <flow id="JF76729" begin="0" fromJunction="J3" toJunction="J0" end="60" vehsPerHour="269.9915865485206"/>
  <flow id="JF76730" begin="0" fromJunction="J0" toJunction="J3" end="60" vehsPerHour="185.77737992216743"/>
  <flow id="JF76731" begin="0" fromJunction="J3" toJunction="J4" end="60" vehsPerHour="15.132941979106837"/>
  <flow id="JF76732" begin="0" fromJunction="J3" toJunction="J2" end="60" vehsPerHour="15.752629575050626"/>
  <flow id="JF76733" begin="0" fromJunction="J0" toJunction="J4" end="60" vehsPerHour="28.182107293633816"/>
  <flow id="JF76734" begin="0" fromJunction="J0" toJunction="J2" end="60" vehsPerHour="26.333208573674625"/>
  <flow id="JF76735" begin="0" fromJunction="J4" toJunction="J2" end="60" vehsPerHour="29.95107623217563"/>
  <flow id="JF76736" begin="0" fromJunction="J2" toJunction="J4" end="60" vehsPerHour="13.647966841486697"/>
  <flow id="JF76737" begin="0" fromJunction="J4" toJunction="J3" end="60" vehsPerHour="58.94404151252819"/>
  <flow id="JF76738" begin="0" fromJunction="J4" toJunction="J0" end="60" vehsPerHour="40.536004791405794"/>
  <flow id="JF76739" begin="0" fromJunction="J2" toJunction="J3" end="60" vehsPerHour="76.91778012908074"/>
  <flow id="JF76740" begin="0" fromJunction="J2" toJunction="J0" end="60" vehsPerHour="101.95932006711257"/>
  <flow id="JF76741" begin="60" fromJunction="J3" toJunction="J0" end="120" vehsPerHour="66.89909120112395"/>
  <flow id="JF76742" begin="60" fromJunction="J0" toJunction="J3" end="120" vehsPerHour="63.45790224385047"/>
  <flow id="JF76743" begin="60" fromJunction="J3" toJunction="J4" end="120" vehsPerHour="130.2888835313729"/>
  <flow id="JF76744" begin="60" fromJunction="J3" toJunction="J2" end="120" vehsPerHour="47.995432525335225"/>
  <flow id="JF76745" begin="60" fromJunction="J0" toJunction="J4" end="120" vehsPerHour="126.01866630757368"/>
  <flow id="JF76746" begin="60" fromJunction="J0" toJunction="J2" end="120" vehsPerHour="125.20144231483815"/>
  <flow id="JF76747" begin="60" fromJunction="J4" toJunction="J2" end="120" vehsPerHour="24.24690508747228"/>
  <flow id="JF76748" begin="60" fromJunction="J2" toJunction="J4" end="120" vehsPerHour="98.6442350876181"/>
  <flow id="JF76749" begin="60" fromJunction="J4" toJunction="J3" end="120" vehsPerHour="82.72453871024375"/>
  <flow id="JF76750" begin="60" fromJunction="J4" toJunction="J0" end="120" vehsPerHour="5.213119488552381"/>
  <flow id="JF76751" begin="60" fromJunction="J2" toJunction="J3" end="120" vehsPerHour="109.39497371752257"/>
  <flow id="JF76752" begin="60" fromJunction="J2" toJunction="J0" end="120" vehsPerHour="32.73388096219653"/>
  <flow id="JF76753" begin="120" fromJunction="J3" toJunction="J0" end="180" vehsPerHour="540.4410057967359"/>
  <flow id="JF76754" begin="120" fromJunction="J0" toJunction="J3" end="180" vehsPerHour="155.29795534922079"/>
  <flow id="JF76755" begin="120" fromJunction="J3" toJunction="J4" end="180" vehsPerHour="118.58289502482536"/>
  <flow id="JF76756" begin="120" fromJunction="J3" toJunction="J2" end="180" vehsPerHour="87.13694441442183"/>
  <flow id="JF76757" begin="120" fromJunction="J0" toJunction="J4" end="180" vehsPerHour="125.36244239229615"/>
  <flow id="JF76758" begin="120" fromJunction="J0" toJunction="J2" end="180" vehsPerHour="88.7434048440612"/>
  <flow id="JF76759" begin="120" fromJunction="J4" toJunction="J2" end="180" vehsPerHour="65.15718610057215"/>
  <flow id="JF76760" begin="120" fromJunction="J2" toJunction="J4" end="180" vehsPerHour="37.19087183096189"/>
  <flow id="JF76761" begin="120" fromJunction="J4" toJunction="J3" end="180" vehsPerHour="116.74692853627111"/>
  <flow id="JF76762" begin="120" fromJunction="J4" toJunction="J0" end="180" vehsPerHour="60.71988372407389"/>
  <flow id="JF76763" begin="120" fromJunction="J2" toJunction="J3" end="180" vehsPerHour="119.31205694552844"/>
  <flow id="JF76764" begin="120" fromJunction="J2" toJunction="J0" end="180" vehsPerHour="94.45395635378395"/>
  <flow id="JF76765" begin="180" fromJunction="J3" toJunction="J0" end="240" vehsPerHour="404.44868707929135"/>
  <flow id="JF76766" begin="180" fromJunction="J0" toJunction="J3" end="240" vehsPerHour="78.19049444498772"/>
  <flow id="JF76767" begin="180" fromJunction="J3" toJunction="J4" end="240" vehsPerHour="53.979031000180434"/>
  <flow id="JF76768" begin="180" fromJunction="J3" toJunction="J2" end="240" vehsPerHour="21.652324212269885"/>
  <flow id="JF76769" begin="180" fromJunction="J0" toJunction="J4" end="240" vehsPerHour="136.30732608274954"/>
  <flow id="JF76770" begin="180" fromJunction="J0" toJunction="J2" end="240" vehsPerHour="30.718892684243666"/>
  <flow id="JF76771" begin="180" fromJunction="J4" toJunction="J2" end="240" vehsPerHour="51.76277561025469"/>
  <flow id="JF76772" begin="180" fromJunction="J2" toJunction="J4" end="240" vehsPerHour="93.8046468245685"/>
  <flow id="JF76773" begin="180" fromJunction="J4" toJunction="J3" end="240" vehsPerHour="71.67608604876904"/>
  <flow id="JF76774" begin="180" fromJunction="J4" toJunction="J0" end="240" vehsPerHour="127.51471351516938"/>
  <flow id="JF76775" begin="180" fromJunction="J2" toJunction="J3" end="240" vehsPerHour="92.91005293665394"/>
  <flow id="JF76776" begin="180" fromJunction="J2" toJunction="J0" end="240" vehsPerHour="69.65199557293109"/>
  <flow id="JF76777" begin="240" fromJunction="J3" toJunction="J0" end="300" vehsPerHour="183.46618352004103"/>
  <flow id="JF76778" begin="240" fromJunction="J0" toJunction="J3" end="300" vehsPerHour="468.8802878252805"/>
  <flow id="JF76779" begin="240" fromJunction="J3" toJunction="J4" end="300" vehsPerHour="60.053583312783296"/>
  <flow id="JF76780" begin="240" fromJunction="J3" toJunction="J2" end="300" vehsPerHour="67.5952824981361"/>
  <flow id="JF76781" begin="240" fromJunction="J0" toJunction="J4" end="300" vehsPerHour="15.23572044525693"/>
  <flow id="JF76782" begin="240" fromJunction="J0" toJunction="J2" end="300" vehsPerHour="39.04491244390445"/>
  <flow id="JF76783" begin="300" fromJunction="J3" toJunction="J0" end="360" vehsPerHour="227.9418133539119"/>
  <flow id="JF76784" begin="300" fromJunction="J0" toJunction="J3" end="360" vehsPerHour="524.6006249045313"/>
  <flow id="JF76785" begin="300" fromJunction="J3" toJunction="J4" end="360" vehsPerHour="23.33539763877742"/>
  <flow id="JF76786" begin="300" fromJunction="J3" toJunction="J2" end="360" vehsPerHour="75.49936951612165"/>
  <flow id="JF76787" begin="300" fromJunction="J0" toJunction="J4" end="360" vehsPerHour="130.96454438304693"/>
  <flow id="JF76788" begin="300" fromJunction="J0" toJunction="J2" end="360" vehsPerHour="26.088236383401703"/>
  <flow id="JF76789" begin="300" fromJunction="J4" toJunction="J2" end="360" vehsPerHour="11.763042298508397"/>
  <flow id="JF76790" begin="300" fromJunction="J2" toJunction="J4" end="360" vehsPerHour="83.42504441715862"/>
  <flow id="JF76791" begin="300" fromJunction="J4" toJunction="J3" end="360" vehsPerHour="85.09736640922756"/>
  <flow id="JF76792" begin="300" fromJunction="J4" toJunction="J0" end="360" vehsPerHour="119.10896254202483"/>
  <flow id="JF76793" begin="300" fromJunction="J2" toJunction="J3" end="360" vehsPerHour="25.51334387641736"/>
  <flow id="JF76794" begin="300" fromJunction="J2" toJunction="J0" end="360" vehsPerHour="52.9944509014885"/>
  <flow id="JF76795" begin="360" fromJunction="J3" toJunction="J0" end="420" vehsPerHour="235.05839203116116"/>
  <flow id="JF76796" begin="360" fromJunction="J0" toJunction="J3" end="420" vehsPerHour="402.41624147635144"/>
  <flow id="JF76797" begin="360" fromJunction="J3" toJunction="J4" end="420" vehsPerHour="75.38560680316623"/>
  <flow id="JF76798" begin="360" fromJunction="J3" toJunction="J2" end="420" vehsPerHour="90.84530138705028"/>
  <flow id="JF76799" begin="360" fromJunction="J0" toJunction="J4" end="420" vehsPerHour="9.979932390076764"/>
  <flow id="JF76800" begin="360" fromJunction="J0" toJunction="J2" end="420" vehsPerHour="4.565343922557869"/>
  <flow id="JF76801" begin="360" fromJunction="J4" toJunction="J2" end="420" vehsPerHour="51.113092611131265"/>
  <flow id="JF76802" begin="360" fromJunction="J2" toJunction="J4" end="420" vehsPerHour="134.32215410313853"/>
  <flow id="JF76803" begin="360" fromJunction="J4" toJunction="J3" end="420" vehsPerHour="93.93329701465241"/>
  <flow id="JF76804" begin="360" fromJunction="J4" toJunction="J0" end="420" vehsPerHour="111.81334795470225"/>
  <flow id="JF76805" begin="360" fromJunction="J2" toJunction="J3" end="420" vehsPerHour="82.23764836950674"/>
  <flow id="JF76806" begin="360" fromJunction="J2" toJunction="J0" end="420" vehsPerHour="8.55126418729068"/>
  <flow id="JF76807" begin="420" fromJunction="J3" toJunction="J0" end="480" vehsPerHour="341.1011005001027"/>
  <flow id="JF76808" begin="420" fromJunction="J0" toJunction="J3" end="480" vehsPerHour="487.9352842261752"/>
  <flow id="JF76809" begin="420" fromJunction="J3" toJunction="J4" end="480" vehsPerHour="9.922279418098515"/>
  <flow id="JF76810" begin="420" fromJunction="J3" toJunction="J2" end="480" vehsPerHour="24.916591563938287"/>
  <flow id="JF76811" begin="420" fromJunction="J0" toJunction="J4" end="480" vehsPerHour="107.77545265976234"/>
  <flow id="JF76812" begin="420" fromJunction="J0" toJunction="J2" end="480" vehsPerHour="27.990315969902866"/>
  <flow id="JF76813" begin="480" fromJunction="J3" toJunction="J0" end="540" vehsPerHour="277.42618673753"/>
  <flow id="JF76814" begin="480" fromJunction="J0" toJunction="J3" end="540" vehsPerHour="253.50656660321062"/>
  <flow id="JF76815" begin="480" fromJunction="J3" toJunction="J4" end="540" vehsPerHour="94.81597118399185"/>
  <flow id="JF76816" begin="480" fromJunction="J3" toJunction="J2" end="540" vehsPerHour="9.526124804083324"/>
  <flow id="JF76817" begin="480" fromJunction="J0" toJunction="J4" end="540" vehsPerHour="78.05762500847791"/>
  <flow id="JF76818" begin="480" fromJunction="J0" toJunction="J2" end="540" vehsPerHour="87.47003884727506"/>
  <flow id="JF76819" begin="480" fromJunction="J4" toJunction="J2" end="540" vehsPerHour="11.923426061369629"/>
  <flow id="JF76820" begin="480" fromJunction="J2" toJunction="J4" end="540" vehsPerHour="93.87152574487914"/>
  <flow id="JF76821" begin="480" fromJunction="J4" toJunction="J3" end="540" vehsPerHour="106.98155225530918"/>
  <flow id="JF76822" begin="480" fromJunction="J4" toJunction="J0" end="540" vehsPerHour="126.40386181371257"/>
  <flow id="JF76823" begin="480" fromJunction="J2" toJunction="J3" end="540" vehsPerHour="32.1870149973976"/>
  <flow id="JF76824" begin="480" fromJunction="J2" toJunction="J0" end="540" vehsPerHour="25.892184133091476"/>
  <flow id="JF76825" begin="540" fromJunction="J3" toJunction="J0" end="600" vehsPerHour="442.59049964669936"/>
  <flow id="JF76826" begin="540" fromJunction="J0" toJunction="J3" end="600" vehsPerHour="371.92641488740526"/>
  <flow id="JF76827" begin="540" fromJunction="J3" toJunction="J4" end="600" vehsPerHour="83.63416586761463"/>
  <flow id="JF76828" begin="540" fromJunction="J3" toJunction="J2" end="600" vehsPerHour="89.576470858709"/>
  <flow id="JF76829" begin="540" fromJunction="J0" toJunction="J4" end="600" vehsPerHour="110.54393430815217"/>
  <flow id="JF76830" begin="540" fromJunction="J0" toJunction="J2" end="600" vehsPerHour="55.0763115704023"/>
  <flow id="JF76831" begin="600" fromJunction="J3" toJunction="J0" end="660" vehsPerHour="204.96445286226188"/>
  <flow id="JF76832" begin="600" fromJunction="J0" toJunction="J3" end="660" vehsPerHour="324.860120865462"/>
  <flow id="JF76833" begin="600" fromJunction="J3" toJunction="J4" end="660" vehsPerHour="50.65770972267963"/>
  <flow id="JF76834" begin="600" fromJunction="J3" toJunction="J2" end="660" vehsPerHour="96.2006086662085"/>
  <flow id="JF76835" begin="600" fromJunction="J0" toJunction="J4" end="660" vehsPerHour="22.14139019596091"/>
  <flow id="JF76836" begin="600" fromJunction="J0" toJunction="J2" end="660" vehsPerHour="3.2480512337530647"/>
  <flow id="JF76837" begin="660" fromJunction="J3" toJunction="J0" end="720" vehsPerHour="400.8485472963514"/>
  <flow id="JF76838" begin="660" fromJunction="J0" toJunction="J3" end="720" vehsPerHour="85.51224203609705"/>
  <flow id="JF76839" begin="660" fromJunction="J3" toJunction="J4" end="720" vehsPerHour="126.16330067590538"/>
  <flow id="JF76840" begin="660" fromJunction="J3" toJunction="J2" end="720" vehsPerHour="84.42606281511287"/>
  <flow id="JF76841" begin="660" fromJunction="J0" toJunction="J4" end="720" vehsPerHour="8.956822409413787"/>
  <flow id="JF76842" begin="660" fromJunction="J0" toJunction="J2" end="720" vehsPerHour="30.154387693357187"/>
  <flow id="JF76843" begin="660" fromJunction="J4" toJunction="J2" end="720" vehsPerHour="59.366353037321986"/>
  <flow id="JF76844" begin="660" fromJunction="J2" toJunction="J4" end="720" vehsPerHour="37.58296020089726"/>
  <flow id="JF76845" begin="660" fromJunction="J4" toJunction="J3" end="720" vehsPerHour="52.7319345635162"/>
  <flow id="JF76846" begin="660" fromJunction="J4" toJunction="J0" end="720" vehsPerHour="109.3452396192466"/>
  <flow id="JF76847" begin="660" fromJunction="J2" toJunction="J3" end="720" vehsPerHour="43.55579820150194"/>
  <flow id="JF76848" begin="660" fromJunction="J2" toJunction="J0" end="720" vehsPerHour="37.32283986383814"/>
  <flow id="JF76849" begin="720" fromJunction="J3" toJunction="J0" end="780" vehsPerHour="523.6117107573822"/>
  <flow id="JF76850" begin="720" fromJunction="J0" toJunction="J3" end="780" vehsPerHour="406.0433224109868"/>
  <flow id="JF76851" begin="720" fromJunction="J3" toJunction="J4" end="780" vehsPerHour="58.123364370597045"/>
  <flow id="JF76852" begin="720" fromJunction="J3" toJunction="J2" end="780" vehsPerHour="33.198921696071395"/>
  <flow id="JF76853" begin="720" fromJunction="J0" toJunction="J4" end="780" vehsPerHour="11.763849223224959"/>
  <flow id="JF76854" begin="720" fromJunction="J0" toJunction="J2" end="780" vehsPerHour="17.25910025110811"/>
  <flow id="JF76855" begin="720" fromJunction="J4" toJunction="J2" end="780" vehsPerHour="79.92827152739943"/>
  <flow id="JF76856" begin="720" fromJunction="J2" toJunction="J4" end="780" vehsPerHour="50.56944667930294"/>
  <flow id="JF76857" begin="720" fromJunction="J4" toJunction="J3" end="780" vehsPerHour="55.21171490578153"/>
  <flow id="JF76858" begin="720" fromJunction="J4" toJunction="J0" end="780" vehsPerHour="14.76705324472163"/>
  <flow id="JF76859" begin="720" fromJunction="J2" toJunction="J3" end="780" vehsPerHour="97.1064324299777"/>
  <flow id="JF76860" begin="720" fromJunction="J2" toJunction="J0" end="780" vehsPerHour="25.59094900753934"/>
  <flow id="JF76861" begin="780" fromJunction="J3" toJunction="J0" end="840" vehsPerHour="260.14895603581624"/>
  <flow id="JF76862" begin="780" fromJunction="J0" toJunction="J3" end="840" vehsPerHour="399.77557417534524"/>
  <flow id="JF76863" begin="780" fromJunction="J3" toJunction="J4" end="840" vehsPerHour="51.45076439965881"/>
  <flow id="JF76864" begin="780" fromJunction="J3" toJunction="J2" end="840" vehsPerHour="120.08795909706353"/>
  <flow id="JF76865" begin="780" fromJunction="J0" toJunction="J4" end="840" vehsPerHour="16.20204858753657"/>
  <flow id="JF76866" begin="780" fromJunction="J0" toJunction="J2" end="840" vehsPerHour="84.04199238542789"/>
  <flow id="JF76867" begin="780" fromJunction="J4" toJunction="J2" end="840" vehsPerHour="109.03836983083539"/>
  <flow id="JF76868" begin="780" fromJunction="J2" toJunction="J4" end="840" vehsPerHour="108.76774039983553"/>
  <flow id="JF76869" begin="780" fromJunction="J4" toJunction="J3" end="840" vehsPerHour="43.54903134976118"/>
  <flow id="JF76870" begin="780" fromJunction="J4" toJunction="J0" end="840" vehsPerHour="74.60845285680182"/>
  <flow id="JF76871" begin="780" fromJunction="J2" toJunction="J3" end="840" vehsPerHour="122.75745922303066"/>
  <flow id="JF76872" begin="780" fromJunction="J2" toJunction="J0" end="840" vehsPerHour="44.168013112333796"/>
  <flow id="JF76873" begin="840" fromJunction="J3" toJunction="J0" end="900" vehsPerHour="488.44533590525776"/>
  <flow id="JF76874" begin="840" fromJunction="J0" toJunction="J3" end="900" vehsPerHour="61.990279835562504"/>
  <flow id="JF76875" begin="840" fromJunction="J3" toJunction="J4" end="900" vehsPerHour="67.66831423877487"/>
  <flow id="JF76876" begin="840" fromJunction="J3" toJunction="J2" end="900" vehsPerHour="137.3072073892661"/>
  <flow id="JF76877" begin="840" fromJunction="J0" toJunction="J4" end="900" vehsPerHour="97.85376368358567"/>
  <flow id="JF76878" begin="840" fromJunction="J0" toJunction="J2" end="900" vehsPerHour="48.24857906668776"/>
  <flow id="JF76879" begin="840" fromJunction="J4" toJunction="J2" end="900" vehsPerHour="81.28340914536541"/>
  <flow id="JF76880" begin="840" fromJunction="J2" toJunction="J4" end="900" vehsPerHour="39.567324455506856"/>
  <flow id="JF76881" begin="840" fromJunction="J4" toJunction="J3" end="900" vehsPerHour="134.77253004278228"/>
  <flow id="JF76882" begin="840" fromJunction="J4" toJunction="J0" end="900" vehsPerHour="44.61158872044864"/>
  <flow id="JF76883" begin="840" fromJunction="J2" toJunction="J3" end="900" vehsPerHour="35.894597999800666"/>
  <flow id="JF76884" begin="840" fromJunction="J2" toJunction="J0" end="900" vehsPerHour="60.33087954791091"/>
  <flow id="JF76885" begin="900" fromJunction="J3" toJunction="J0" end="960" vehsPerHour="70.10703968443178"/>
  <flow id="JF76886" begin="900" fromJunction="J0" toJunction="J3" end="960" vehsPerHour="200.57964414032674"/>
  <flow id="JF76887" begin="900" fromJunction="J3" toJunction="J4" end="960" vehsPerHour="53.05698249506876"/>
  <flow id="JF76888" begin="900" fromJunction="J3" toJunction="J2" end="960" vehsPerHour="125.68682824286516"/>
  <flow id="JF76889" begin="900" fromJunction="J0" toJunction="J4" end="960" vehsPerHour="93.67751129917232"/>
  <flow id="JF76890" begin="900" fromJunction="J0" toJunction="J2" end="960" vehsPerHour="70.09024922829892"/>
  <flow id="JF76891" begin="960" fromJunction="J3" toJunction="J0" end="1020" vehsPerHour="409.06596932474855"/>
  <flow id="JF76892" begin="960" fromJunction="J0" toJunction="J3" end="1020" vehsPerHour="223.67249871738468"/>
  <flow id="JF76893" begin="960" fromJunction="J3" toJunction="J4" end="1020" vehsPerHour="74.50335814046666"/>
  <flow id="JF76894" begin="960" fromJunction="J3" toJunction="J2" end="1020" vehsPerHour="134.42518390856293"/>
  <flow id="JF76895" begin="960" fromJunction="J0" toJunction="J4" end="1020" vehsPerHour="70.9169591410631"/>
  <flow id="JF76896" begin="960" fromJunction="J0" toJunction="J2" end="1020" vehsPerHour="85.55613547839094"/>
  <flow id="JF76897" begin="960" fromJunction="J4" toJunction="J2" end="1020" vehsPerHour="34.059735373365136"/>
  <flow id="JF76898" begin="960" fromJunction="J2" toJunction="J4" end="1020" vehsPerHour="30.612867766844133"/>
  <flow id="JF76899" begin="960" fromJunction="J4" toJunction="J3" end="1020" vehsPerHour="74.00149151540388"/>
  <flow id="JF76900" begin="960" fromJunction="J4" toJunction="J0" end="1020" vehsPerHour="121.55685231118089"/>
  <flow id="JF76901" begin="960" fromJunction="J2" toJunction="J3" end="1020" vehsPerHour="52.95931885953105"/>
  <flow id="JF76902" begin="960" fromJunction="J2" toJunction="J0" end="1020" vehsPerHour="39.88360290719654"/>
  <flow id="JF76903" begin="1020" fromJunction="J3" toJunction="J0" end="1080" vehsPerHour="146.44805492351836"/>
  <flow id="JF76904" begin="1020" fromJunction="J0" toJunction="J3" end="1080" vehsPerHour="376.9891595606526"/>
  <flow id="JF76905" begin="1020" fromJunction="J3" toJunction="J4" end="1080" vehsPerHour="8.198209703273692"/>
  <flow id="JF76906" begin="1020" fromJunction="J3" toJunction="J2" end="1080" vehsPerHour="126.57084063009057"/>
  <flow id="JF76907" begin="1020" fromJunction="J0" toJunction="J4" end="1080" vehsPerHour="110.90758304480697"/>
  <flow id="JF76908" begin="1020" fromJunction="J0" toJunction="J2" end="1080" vehsPerHour="76.06170307375147"/>
  <flow id="JF76909" begin="1020" fromJunction="J4" toJunction="J2" end="1080" vehsPerHour="126.83135986683017"/>
  <flow id="JF76910" begin="1020" fromJunction="J2" toJunction="J4" end="1080" vehsPerHour="29.30071121150338"/>
  <flow id="JF76911" begin="1020" fromJunction="J4" toJunction="J3" end="1080" vehsPerHour="70.82230485160608"/>
  <flow id="JF76912" begin="1020" fromJunction="J4" toJunction="J0" end="1080" vehsPerHour="134.0883762523242"/>
  <flow id="JF76913" begin="1020" fromJunction="J2" toJunction="J3" end="1080" vehsPerHour="39.49186335809258"/>
  <flow id="JF76914" begin="1020" fromJunction="J2" toJunction="J0" end="1080" vehsPerHour="26.166396805050653"/>
  <flow id="JF76915" begin="1080" fromJunction="J3" toJunction="J0" end="1140" vehsPerHour="151.56456558616748"/>
  <flow id="JF76916" begin="1080" fromJunction="J0" toJunction="J3" end="1140" vehsPerHour="439.08595483358556"/>
  <flow id="JF76917" begin="1080" fromJunction="J3" toJunction="J4" end="1140" vehsPerHour="63.774022931336496"/>
  <flow id="JF76918" begin="1080" fromJunction="J3" toJunction="J2" end="1140" vehsPerHour="92.26337197240933"/>
  <flow id="JF76919" begin="1080" fromJunction="J0" toJunction="J4" end="1140" vehsPerHour="63.77330062528589"/>
  <flow id="JF76920" begin="1080" fromJunction="J0" toJunction="J2" end="1140" vehsPerHour="56.770419976118546"/>
  <flow id="JF76921" begin="1080" fromJunction="J4" toJunction="J2" end="1140" vehsPerHour="13.045827274002544"/>
  <flow id="JF76922" begin="1080" fromJunction="J2" toJunction="J4" end="1140" vehsPerHour="14.636208940124739"/>
  <flow id="JF76923" begin="1080" fromJunction="J4" toJunction="J3" end="1140" vehsPerHour="83.47777069244422"/>
  <flow id="JF76924" begin="1080" fromJunction="J4" toJunction="J0" end="1140" vehsPerHour="78.43388014945887"/>
  <flow id="JF76925" begin="1080" fromJunction="J2" toJunction="J3" end="1140" vehsPerHour="112.24124030207038"/>
  <flow id="JF76926" begin="1080" fromJunction="J2" toJunction="J0" end="1140" vehsPerHour="43.9815166510813"/>
  <flow id="JF76927" begin="1140" fromJunction="J3" toJunction="J0" end="1200" vehsPerHour="57.41702253732945"/>
  <flow id="JF76928" begin="1140" fromJunction="J0" toJunction="J3" end="1200" vehsPerHour="40.192514016040455"/>
  <flow id="JF76929" begin="1140" fromJunction="J3" toJunction="J4" end="1200" vehsPerHour="131.84911165152246"/>
  <flow id="JF76930" begin="1140" fromJunction="J3" toJunction="J2" end="1200" vehsPerHour="103.17214404527799"/>
  <flow id="JF76931" begin="1140" fromJunction="J0" toJunction="J4" end="1200" vehsPerHour="41.6218098096608"/>
  <flow id="JF76932" begin="1140" fromJunction="J0" toJunction="J2" end="1200" vehsPerHour="119.90773719057853"/>
  <flow id="JF76933" begin="1140" fromJunction="J4" toJunction="J2" end="1200" vehsPerHour="40.071978764517254"/>
  <flow id="JF76934" begin="1140" fromJunction="J2" toJunction="J4" end="1200" vehsPerHour="117.64407185004055"/>
  <flow id="JF76935" begin="1140" fromJunction="J4" toJunction="J3" end="1200" vehsPerHour="22.592262677247508"/>
  <flow id="JF76936" begin="1140" fromJunction="J4" toJunction="J0" end="1200" vehsPerHour="108.35948410637674"/>
  <flow id="JF76937" begin="1140" fromJunction="J2" toJunction="J3" end="1200" vehsPerHour="72.72644491482362"/>
  <flow id="JF76938" begin="1140" fromJunction="J2" toJunction="J0" end="1200" vehsPerHour="19.643621190290833"/>
  <flow id="JF76939" begin="1200" fromJunction="J3" toJunction="J0" end="1260" vehsPerHour="423.7308087715118"/>
  <flow id="JF76940" begin="1200" fromJunction="J0" toJunction="J3" end="1260" vehsPerHour="266.02571133243947"/>
  <flow id="JF76941" begin="1200" fromJunction="J3" toJunction="J4" end="1260" vehsPerHour="79.51112565767559"/>
  <flow id="JF76942" begin="1200" fromJunction="J3" toJunction="J2" end="1260" vehsPerHour="71.39106086454406"/>
  <flow id="JF76943" begin="1200" fromJunction="J0" toJunction="J4" end="1260" vehsPerHour="131.705574097788"/>
  <flow id="JF76944" begin="1200" fromJunction="J0" toJunction="J2" end="1260" vehsPerHour="99.70558386109973"/>
  <flow id="JF76945" begin="1200" fromJunction="J4" toJunction="J2" end="1260" vehsPerHour="31.08217472839559"/>
  <flow id="JF76946" begin="1200" fromJunction="J2" toJunction="J4" end="1260" vehsPerHour="135.1114699274072"/>
  <flow id="JF76947" begin="1200" fromJunction="J4" toJunction="J3" end="1260" vehsPerHour="116.1913411703493"/>
  <flow id="JF76948" begin="1200" fromJunction="J4" toJunction="J0" end="1260" vehsPerHour="78.96088026730831"/>
  <flow id="JF76949" begin="1200" fromJunction="J2" toJunction="J3" end="1260" vehsPerHour="57.923802793292204"/>
  <flow id="JF76950" begin="1200" fromJunction="J2" toJunction="J0" end="1260" vehsPerHour="92.63642706232585"/>
  <flow id="JF76951" begin="1260" fromJunction="J3" toJunction="J0" end="1320" vehsPerHour="148.58939314819736"/>
  <flow id="JF76952" begin="1260" fromJunction="J0" toJunction="J3" end="1320" vehsPerHour="518.211040183245"/>
  <flow id="JF76953" begin="1260" fromJunction="J3" toJunction="J4" end="1320" vehsPerHour="91.05228540889907"/>
  <flow id="JF76954" begin="1260" fromJunction="J3" toJunction="J2" end="1320" vehsPerHour="72.24910939666113"/>
  <flow id="JF76955" begin="1260" fromJunction="J0" toJunction="J4" end="1320" vehsPerHour="40.41029295089035"/>
  <flow id="JF76956" begin="1260" fromJunction="J0" toJunction="J2" end="1320" vehsPerHour="123.2846820564685"/>
  <flow id="JF76957" begin="1320" fromJunction="J3" toJunction="J0" end="1380" vehsPerHour="429.39435596016574"/>
  <flow id="JF76958" begin="1320" fromJunction="J0" toJunction="J3" end="1380" vehsPerHour="197.2023508456874"/>
  <flow id="JF76959" begin="1320" fromJunction="J3" toJunction="J4" end="1380" vehsPerHour="51.03835206464897"/>
  <flow id="JF76960" begin="1320" fromJunction="J3" toJunction="J2" end="1380" vehsPerHour="30.11876332371584"/>
  <flow id="JF76961" begin="1320" fromJunction="J0" toJunction="J4" end="1380" vehsPerHour="125.46095499422569"/>
  <flow id="JF76962" begin="1320" fromJunction="J0" toJunction="J2" end="1380" vehsPerHour="128.71195256471876"/>
  <flow id="JF76963" begin="1320" fromJunction="J4" toJunction="J2" end="1380" vehsPerHour="114.44087815451192"/>
  <flow id="JF76964" begin="1320" fromJunction="J2" toJunction="J4" end="1380" vehsPerHour="88.19295956259901"/>
  <flow id="JF76965" begin="1320" fromJunction="J4" toJunction="J3" end="1380" vehsPerHour="94.32256996321233"/>
  <flow id="JF76966" begin="1320" fromJunction="J4" toJunction="J0" end="1380" vehsPerHour="112.40140839969298"/>
  <flow id="JF76967" begin="1320" fromJunction="J2" toJunction="J3" end="1380" vehsPerHour="50.85004761528667"/>
  <flow id="JF76968" begin="1320" fromJunction="J2" toJunction="J0" end="1380" vehsPerHour="78.5300256319875"/>
  <flow id="JF76969" begin="1380" fromJunction="J3" toJunction="J0" end="1440" vehsPerHour="303.2246340334236"/>
  <flow id="JF76970" begin="1380" fromJunction="J0" toJunction="J3" end="1440" vehsPerHour="277.65421690520395"/>
  <flow id="JF76971" begin="1380" fromJunction="J3" toJunction="J4" end="1440" vehsPerHour="85.28141901800133"/>
  <flow id="JF76972" begin="1380" fromJunction="J3" toJunction="J2" end="1440" vehsPerHour="13.204322721514107"/>
  <flow id="JF76973" begin="1380" fromJunction="J0" toJunction="J4" end="1440" vehsPerHour="8.76603777508605"/>
  <flow id="JF76974" begin="1380" fromJunction="J0" toJunction="J2" end="1440" vehsPerHour="31.231344322190328"/>
  <flow id="JF76975" begin="1440" fromJunction="J3" toJunction="J0" end="1500" vehsPerHour="127.79723019583619"/>
  <flow id="JF76976" begin="1440" fromJunction="J0" toJunction="J3" end="1500" vehsPerHour="55.48202061316931"/>
  <flow id="JF76977" begin="1440" fromJunction="J3" toJunction="J4" end="1500" vehsPerHour="38.08772906469856"/>
  <flow id="JF76978" begin="1440" fromJunction="J3" toJunction="J2" end="1500" vehsPerHour="61.02411324873554"/>
  <flow id="JF76979" begin="1440" fromJunction="J0" toJunction="J4" end="1500" vehsPerHour="82.74006310968925"/>
  <flow id="JF76980" begin="1440" fromJunction="J0" toJunction="J2" end="1500" vehsPerHour="22.103082294729752"/>
  <flow id="JF76981" begin="1500" fromJunction="J3" toJunction="J0" end="1560" vehsPerHour="171.86523971336632"/>
  <flow id="JF76982" begin="1500" fromJunction="J0" toJunction="J3" end="1560" vehsPerHour="278.49845159310524"/>
  <flow id="JF76983" begin="1500" fromJunction="J3" toJunction="J4" end="1560" vehsPerHour="85.50995288911"/>
  <flow id="JF76984" begin="1500" fromJunction="J3" toJunction="J2" end="1560" vehsPerHour="103.93524393541419"/>
  <flow id="JF76985" begin="1500" fromJunction="J0" toJunction="J4" end="1560" vehsPerHour="40.19061666179321"/>
  <flow id="JF76986" begin="1500" fromJunction="J0" toJunction="J2" end="1560" vehsPerHour="40.82522874774465"/>
  <flow id="JF76987" begin="1500" fromJunction="J4" toJunction="J2" end="1560" vehsPerHour="130.94728720514325"/>
  <flow id="JF76988" begin="1500" fromJunction="J2" toJunction="J4" end="1560" vehsPerHour="51.44873236284729"/>
  <flow id="JF76989" begin="1500" fromJunction="J4" toJunction="J3" end="1560" vehsPerHour="34.726100153043156"/>
  <flow id="JF76990" begin="1500" fromJunction="J4" toJunction="J0" end="1560" vehsPerHour="33.66943688412077"/>
  <flow id="JF76991" begin="1500" fromJunction="J2" toJunction="J3" end="1560" vehsPerHour="68.24003999088013"/>
  <flow id="JF76992" begin="1500" fromJunction="J2" toJunction="J0" end="1560" vehsPerHour="4.193772871816508"/>
  <flow id="JF76993" begin="1560" fromJunction="J3" toJunction="J0" end="1620" vehsPerHour="493.4445631133098"/>
  <flow id="JF76994" begin="1560" fromJunction="J0" toJunction="J3" end="1620" vehsPerHour="289.4994944336472"/>