<?xml version="1.0" encoding="UTF-8"?>
<routes xmlns:xsi="http://www.w3.org/2001/XMLSchema-instance" xsi:noNamespaceSchemaLocation="http://sumo.dlr.de/xsd/routes_file.xsd">
  <flow id="JF39607" begin="0" fromJunction="J0" toJunction="J2" end="60" vehsPerHour="66.93646316369525"/>
  <flow id="JF39608" begin="0" fromJunction="J0" toJunction="J4" end="60" vehsPerHour="86.0170799656631"/>
  <flow id="JF39609" begin="0" fromJunction="J2" toJunction="J3" end="60" vehsPerHour="106.74037747314087"/>
  <flow id="JF39610" begin="0" fromJunction="J3" toJunction="J0" end="60" vehsPerHour="90.63057725476207"/>
  <flow id="JF39611" begin="0" fromJunction="J3" toJunction="J4" end="60" vehsPerHour="110.63761758942286"/>
  <flow id="JF39612" begin="0" fromJunction="J4" toJunction="J2" end="60" vehsPerHour="112.796413966284"/>
  <flow id="JF39613" begin="0" fromJunction="J4" toJunction="J3" end="60" vehsPerHour="127.21207103901777"/>
  <flow id="JF39614" begin="60" fromJunction="J0" toJunction="J2" end="120" vehsPerHour="62.3194700950465"/>
  <flow id="JF39615" begin="60" fromJunction="J0" toJunction="J4" end="120" vehsPerHour="11.50451113592677"/>
  <flow id="JF39616" begin="60" fromJunction="J2" toJunction="J0" end="120" vehsPerHour="99.13150210924222"/>
  <flow id="JF39617" begin="60" fromJunction="J2" toJunction="J3" end="120" vehsPerHour="116.73476546965567"/>
  <flow id="JF39618" begin="60" fromJunction="J2" toJunction="J4" end="120" vehsPerHour="124.68563363189175"/>
  <flow id="JF39619" begin="60" fromJunction="J3" toJunction="J0" end="120" vehsPerHour="110.79384135562586"/>
  <flow id="JF39620" begin="60" fromJunction="J3" toJunction="J2" end="120" vehsPerHour="87.63181374339818"/>
  <flow id="JF39621" begin="60" fromJunction="J3" toJunction="J4" end="120" vehsPerHour="136.01720885928978"/>
  <flow id="JF39622" begin="60" fromJunction="J4" toJunction="J0" end="120" vehsPerHour="111.18307486459598"/>
  <flow id="JF39623" begin="60" fromJunction="J4" toJunction="J2" end="120" vehsPerHour="92.17925851899868"/>
  <flow id="JF39624" begin="60" fromJunction="J4" toJunction="J3" end="120" vehsPerHour="76.41303442286325"/>
  <flow id="JF39625" begin="120" fromJunction="J0" toJunction="J3" end="180" vehsPerHour="23.98605117693324"/>
  <flow id="JF39626" begin="120" fromJunction="J0" toJunction="J4" end="180" vehsPerHour="88.67883630017292"/>
  <flow id="JF39627" begin="120" fromJunction="J2" toJunction="J0" end="180" vehsPerHour="35.595191677417034"/>
  <flow id="JF39628" begin="120" fromJunction="J2" toJunction="J3" end="180" vehsPerHour="30.466917723347425"/>
  <flow id="JF39629" begin="120" fromJunction="J3" toJunction="J0" end="180" vehsPerHour="101.56857996671698"/>
  <flow id="JF39630" begin="120" fromJunction="J3" toJunction="J2" end="180" vehsPerHour="90.12711312113863"/>
  <flow id="JF39631" begin="120" fromJunction="J3" toJunction="J4" end="180" vehsPerHour="128.554794879268"/>
  <flow id="JF39632" begin="120" fromJunction="J4" toJunction="J0" end="180" vehsPerHour="45.39424605376855"/>
  <flow id="JF39633" begin="120" fromJunction="J4" toJunction="J2" end="180" vehsPerHour="17.83344244154625"/>
  <flow id="JF39634" begin="120" fromJunction="J4" toJunction="J3" end="180" vehsPerHour="96.52154550577951"/>
  <flow id="JF39635" begin="180" fromJunction="J0" toJunction="J2" end="240" vehsPerHour="136.29277041804926"/>
  <flow id="JF39636" begin="180" fromJunction="J0" toJunction="J3" end="240" vehsPerHour="128.48342065924368"/>
  <flow id="JF39637" begin="180" fromJunction="J2" toJunction="J3" end="240" vehsPerHour="28.931629611475472"/>
  <flow id="JF39638" begin="180" fromJunction="J2" toJunction="J4" end="240" vehsPerHour="36.13494940605175"/>
  <flow id="JF39639" begin="180" fromJunction="J3" toJunction="J4" end="240" vehsPerHour="42.41149148159704"/>
  <flow id="JF39640" begin="180" fromJunction="J4" toJunction="J0" end="240" vehsPerHour="22.715964270306994"/>
  <flow id="JF39641" begin="180" fromJunction="J4" toJunction="J2" end="240" vehsPerHour="123.2927774583196"/>
  <flow id="JF39642" begin="180" fromJunction="J4" toJunction="J3" end="240" vehsPerHour="18.483128190776014"/>
  <flow id="JF39643" begin="240" fromJunction="J0" toJunction="J2" end="300" vehsPerHour="80.02939055245311"/>
  <flow id="JF39644" begin="240" fromJunction="J2" toJunction="J0" end="300" vehsPerHour="43.33717306825494"/>
  <flow id="JF39645" begin="240" fromJunction="J2" toJunction="J3" end="300" vehsPerHour="98.66507616418298"/>
  <flow id="JF39646" begin="240" fromJunction="J2" toJunction="J4" end="300" vehsPerHour="22.571852747850624"/>
  <flow id="JF39647" begin="240" fromJunction="J3" toJunction="J0" end="300" vehsPerHour="46.33007346277802"/>
  <flow id="JF39648" begin="240" fromJunction="J3" toJunction="J2" end="300" vehsPerHour="85.61440517396206"/>
  <flow id="JF39649" begin="240" fromJunction="J3" toJunction="J4" end="300" vehsPerHour="43.25794388638592"/>
  <flow id="JF39650" begin="240" fromJunction="J4" toJunction="J0" end="300" vehsPerHour="51.18381855585184"/>
  <flow id="JF39651" begin="240" fromJunction="J4" toJunction="J2" end="300" vehsPerHour="109.306580124912"/>
  <flow id="JF39652" begin="300" fromJunction="J0" toJunction="J4" end="360" vehsPerHour="7.610707524582728"/>
  <flow id="JF39653" begin="300" fromJunction="J2" toJunction="J0" end="360" vehsPerHour="78.01028325573785"/>
  <flow id="JF39654" begin="300" fromJunction="J2" toJunction="J3" end="360" vehsPerHour="9.295074531175919"/>
  <flow id="JF39655" begin="300" fromJunction="J2" toJunction="J4" end="360" vehsPerHour="136.79164346715748"/>
  <flow id="JF39656" begin="300" fromJunction="J3" toJunction="J2" end="360" vehsPerHour="34.67816844066293"/>
  <flow id="JF39657" begin="300" fromJunction="J3" toJunction="J4" end="360" vehsPerHour="2.833731835481033"/>
  <flow id="JF39658" begin="300" fromJunction="J4" toJunction="J0" end="360" vehsPerHour="45.98987063086378"/>
  <flow id="JF39659" begin="300" fromJunction="J4" toJunction="J2" end="360" vehsPerHour="58.36547494985467"/>
  <flow id="JF39660" begin="300" fromJunction="J4" toJunction="J3" end="360" vehsPerHour="52.39231285552152"/>
  <flow id="JF39661" begin="360" fromJunction="J0" toJunction="J2" end="420" vehsPerHour="72.88777364987048"/>
  <flow id="JF39662" begin="360" fromJunction="J0" toJunction="J3" end="420" vehsPerHour="118.84637485893572"/>
  <flow id="JF39663" begin="360" fromJunction="J0" toJunction="J4" end="420" vehsPerHour="94.01387173787053"/>
  <flow id="JF39664" begin="360" fromJunction="J2" toJunction="J0" end="420" vehsPerHour="13.93418251702567"/>
  <flow id="JF39665" begin="360" fromJunction="J3" toJunction="J0" end="420" vehsPerHour="81.10840317887114"/>
  <flow id="JF39666" begin="360" fromJunction="J3" toJunction="J2" end="420" vehsPerHour="33.014846466571264"/>
  <flow id="JF39667" begin="360" fromJunction="J3" toJunction="J4" end="420" vehsPerHour="64.32522948040157"/>
  <flow id="JF39668" begin="360" fromJunction="J4" toJunction="J0" end="420" vehsPerHour="13.905758243956056"/>
  <flow id="JF39669" begin="360" fromJunction="J4" toJunction="J3" end="420" vehsPerHour="86.52604950468665"/>
  <flow id="JF39670" begin="420" fromJunction="J0" toJunction="J2" end="480" vehsPerHour="29.055323767715773"/>
  <flow id="JF39671" begin="420" fromJunction="J0" toJunction="J4" end="480" vehsPerHour="51.51943391785985"/>
  <flow id="JF39672" begin="420" fromJunction="J2" toJunction="J0" end="480" vehsPerHour="115.54533792622621"/>
  <flow id="JF39673" begin="420" fromJunction="J2" toJunction="J3" end="480" vehsPerHour="40.25991249660205"/>
  <flow id="JF39674" begin="420" fromJunction="J3" toJunction="J0" end="480" vehsPerHour="55.43294458945556"/>
  <flow id="JF39675" begin="420" fromJunction="J3" toJunction="J4" end="480" vehsPerHour="53.16208067448423"/>
  <flow id="JF39676" begin="420" fromJunction="J4" toJunction="J0" end="480" vehsPerHour="55.9744229216081"/>
  <flow id="JF39677" begin="420" fromJunction="J4" toJunction="J2" end="480" vehsPerHour="124.73580632556806"/>
  <flow id="JF39678" begin="480" fromJunction="J0" toJunction="J3" end="540" vehsPerHour="105.32925623323591"/>
  <flow id="JF39679" begin="480" fromJunction="J0" toJunction="J4" end="540" vehsPerHour="59.88896348182111"/>
  <flow id="JF39680" begin="480" fromJunction="J2" toJunction="J3" end="540" vehsPerHour="15.485023262137245"/>
  <flow id="JF39681" begin="480" fromJunction="J2" toJunction="J4" end="540" vehsPerHour="88.61380339313047"/>
  <flow id="JF39682" begin="480" fromJunction="J3" toJunction="J0" end="540" vehsPerHour="41.35672238830126"/>
  <flow id="JF39683" begin="480" fromJunction="J3" toJunction="J2" end="540" vehsPerHour="5.762118851182011"/>
  <flow id="JF39684" begin="480" fromJunction="J3" toJunction="J4" end="540" vehsPerHour="18.959229960548903"/>
  <flow id="JF39685" begin="480" fromJunction="J4" toJunction="J3" end="540" vehsPerHour="26.266685090239125"/>
  <flow id="JF39686" begin="540" fromJunction="J0" toJunction="J2" end="600" vehsPerHour="119.75532984279897"/>
  <flow id="JF39687" begin="540" fromJunction="J0" toJunction="J3" end="600" vehsPerHour="51.12519545274137"/>
  <flow id="JF39688" begin="540" fromJunction="J0" toJunction="J4" end="600" vehsPerHour="121.31622760161841"/>
  <flow id="JF39689" begin="540" fromJunction="J2" toJunction="J4" end="600" vehsPerHour="134.95433408889903"/>
  <flow id="JF39690" begin="540" fromJunction="J3" toJunction="J0" end="600" vehsPerHour="0.36310142073311846"/>
  <flow id="JF39691" begin="540" fromJunction="J3" toJunction="J4" end="600" vehsPerHour="131.14058098595896"/>
  <flow id="JF39692" begin="540" fromJunction="J4" toJunction="J0" end="600" vehsPerHour="112.78185307262302"/>
  <flow id="JF39693" begin="540" fromJunction="J4" toJunction="J3" end="600" vehsPerHour="62.57328194563207"/>
  <flow id="JF39694" begin="600" fromJunction="J0" toJunction="J2" end="660" vehsPerHour="111.90605010469618"/>
  <flow id="JF39695" begin="600" fromJunction="J0" toJunction="J3" end="660" vehsPerHour="77.67978261626071"/>
  <flow id="JF39696" begin="600" fromJunction="J2" toJunction="J0" end="660" vehsPerHour="81.14826377902399"/>
  <flow id="JF39697" begin="600" fromJunction="J2" toJunction="J3" end="660" vehsPerHour="132.55069145862586"/>
  <flow id="JF39698" begin="600" fromJunction="J2" toJunction="J4" end="660" vehsPerHour="134.09581208644377"/>
  <flow id="JF39699" begin="600" fromJunction="J3" toJunction="J2" end="660" vehsPerHour="80.2405353448747"/>
  <flow id="JF39700" begin="600" fromJunction="J3" toJunction="J4" end="660" vehsPerHour="122.17928638190283"/>
  <flow id="JF39701" begin="600" fromJunction="J4" toJunction="J2" end="660" vehsPerHour="93.27811672389046"/>
  <flow id="JF39702" begin="600" fromJunction="J4" toJunction="J3" end="660" vehsPerHour="20.51632526583008"/>
  <flow id="JF39703" begin="660" fromJunction="J0" toJunction="J2" end="720" vehsPerHour="116.6582793779707"/>
  <flow id="JF39704" begin="660" fromJunction="J0" toJunction="J3" end="720" vehsPerHour="131.7122048017601"/>
  <flow id="JF39705" begin="660" fromJunction="J0" toJunction="J4" end="720" vehsPerHour="65.66866596129015"/>
  <flow id="JF39706" begin="660" fromJunction="J2" toJunction="J0" end="720" vehsPerHour="75.85524623316044"/>
  <flow id="JF39707" begin="660" fromJunction="J2" toJunction="J3" end="720" vehsPerHour="96.04187576531059"/>
  <flow id="JF39708" begin="660" fromJunction="J2" toJunction="J4" end="720" vehsPerHour="4.9280269067195"/>
  <flow id="JF39709" begin="660" fromJunction="J3" toJunction="J0" end="720" vehsPerHour="67.80820050947742"/>
  <flow id="JF39710" begin="660" fromJunction="J3" toJunction="J2" end="720" vehsPerHour="104.08292413232272"/>
  <flow id="JF39711" begin="660" fromJunction="J4" toJunction="J0" end="720" vehsPerHour="89.84269507480222"/>
  <flow id="JF39712" begin="660" fromJunction="J4" toJunction="J3" end="720" vehsPerHour="133.0710334442125"/>
  <flow id="JF39713" begin="720" fromJunction="J0" toJunction="J2" end="780" vehsPerHour="10.00398216510842"/>
  <flow id="JF39714" begin="720" fromJunction="J0" toJunction="J3" end="780" vehsPerHour="116.6218116207711"/>
  <flow id="JF39715" begin="720" fromJunction="J0" toJunction="J4" end="780" vehsPerHour="121.51523686531681"/>
  <flow id="JF39716" begin="720" fromJunction="J2" toJunction="J0" end="780" vehsPerHour="108.46417156125642"/>
  <flow id="JF39717" begin="720" fromJunction="J2" toJunction="J3" end="780" vehsPerHour="90.86027031319544"/>
  <flow id="JF39718" begin="720" fromJunction="J2" toJunction="J4" end="780" vehsPerHour="24.64737398723121"/>
  <flow id="JF39719" begin="720" fromJunction="J3" toJunction="J0" end="780" vehsPerHour="34.654846222684895"/>
  <flow id="JF39720" begin="720" fromJunction="J3" toJunction="J2" end="780" vehsPerHour="109.10244052073051"/>
  <flow id="JF39721" begin="720" fromJunction="J4" toJunction="J0" end="780" vehsPerHour="22.544953524052342"/>
  <flow id="JF39722" begin="720" fromJunction="J4" toJunction="J2" end="780" vehsPerHour="37.37784421777028"/>
  <flow id="JF39723" begin="720" fromJunction="J4" toJunction="J3" end="780" vehsPerHour="133.82976972437942"/>
  <flow id="JF39724" begin="780" fromJunction="J0" toJunction="J2" end="840" vehsPerHour="19.807601867552954"/>
  <flow id="JF39725" begin="780" fromJunction="J0" toJunction="J3" end="840" vehsPerHour="98.85123106386082"/>
  <flow id="JF39726" begin="780" fromJunction="J2" toJunction="J0" end="840" vehsPerHour="9.958071868872633"/>
  <flow id="JF39727" begin="780" fromJunction="J2" toJunction="J4" end="840" vehsPerHour="9.818623120392518"/>
  <flow id="JF39728" begin="780" fromJunction="J3" toJunction="J0" end="840" vehsPerHour="57.19595086981624"/>
  <flow id="JF39729" begin="780" fromJunction="J3" toJunction="J2" end="840" vehsPerHour="74.08930778153955"/>
  <flow id="JF39730" begin="780" fromJunction="J3" toJunction="J4" end="840" vehsPerHour="99.07382880337163"/>
  <flow id="JF39731" begin="780" fromJunction="J4" toJunction="J0" end="840" vehsPerHour="114.27821937346165"/>
  <flow id="JF39732" begin="780" fromJunction="J4" toJunction="J3" end="840" vehsPerHour="124.29850438051959"/>
  <flow id="JF39733" begin="840" fromJunction="J0" toJunction="J2" end="900" vehsPerHour="76.85033217864456"/>
  <flow id="JF39734" begin="840" fromJunction="J0" toJunction="J3" end="900" vehsPerHour="11.386519720949646"/>
  <flow id="JF39735" begin="840" fromJunction="J2" toJunction="J0" end="900" vehsPerHour="48.818259454476014"/>
  <flow id="JF39736" begin="840" fromJunction="J2" toJunction="J4" end="900" vehsPerHour="134.67703495452"/>
  <flow id="JF39737" begin="840" fromJunction="J3" toJunction="J0" end="900" vehsPerHour="127.42161780390276"/>
  <flow id="JF39738" begin="840" fromJunction="J3" toJunction="J2" end="900" vehsPerHour="116.95292079847478"/>
  <flow id="JF39739" begin="840" fromJunction="J3" toJunction="J4" end="900" vehsPerHour="58.852130542031595"/>
  <flow id="JF39740" begin="840" fromJunction="J4" toJunction="J0" end="900" vehsPerHour="49.35126355775929"/>
  <flow id="JF39741" begin="840" fromJunction="J4" toJunction="J2" end="900" vehsPerHour="84.07317836626828"/>
  <flow id="JF39742" begin="900" fromJunction="J0" toJunction="J2" end="960" vehsPerHour="58.84083487298943"/>
  <flow id="JF39743" begin="900" fromJunction="J0" toJunction="J4" end="960" vehsPerHour="38.21394123555956"/>
  <flow id="JF39744" begin="900" fromJunction="J2" toJunction="J3" end="960" vehsPerHour="43.61113003300701"/>
  <flow id="JF39745" begin="900" fromJunction="J2" toJunction="J4" end="960" vehsPerHour="26.071704905415345"/>
  <flow id="JF39746" begin="900" fromJunction="J3" toJunction="J0" end="960" vehsPerHour="110.79913621673039"/>
  <flow id="JF39747" begin="900" fromJunction="J3" toJunction="J2" end="960" vehsPerHour="22.487340629321476"/>
  <flow id="JF39748" begin="900" fromJunction="J3" toJunction="J4" end="960" vehsPerHour="137.11484635119498"/>
  <flow id="JF39749" begin="900" fromJunction="J4" toJunction="J0" end="960" vehsPerHour="74.8495106640286"/>
  <flow id="JF39750" begin="960" fromJunction="J0" toJunction="J2" end="1020" vehsPerHour="122.9256007038915"/>
  <flow id="JF39751" begin="960" fromJunction="J0" toJunction="J3" end="1020" vehsPerHour="82.83154728042508"/>
  <flow id="JF39752" begin="960" fromJunction="J0" toJunction="J4" end="1020" vehsPerHour="67.72899449374019"/>
  <flow id="JF39753" begin="960" fromJunction="J2" toJunction="J0" end="1020" vehsPerHour="11.754200017082999"/>
  <flow id="JF39754" begin="960" fromJunction="J2" toJunction="J3" end="1020" vehsPerHour="103.18904508608117"/>
  <flow id="JF39755" begin="960" fromJunction="J3" toJunction="J2" end="1020" vehsPerHour="29.6181203705401"/>
  <flow id="JF39756" begin="960" fromJunction="J4" toJunction="J2" end="1020" vehsPerHour="109.55050759214618"/>
  <flow id="JF39757" begin="960" fromJunction="J4" toJunction="J3" end="1020" vehsPerHour="10.728886612390893"/>
  <flow id="JF39758" begin="1020" fromJunction="J2" toJunction="J0" end="1080" vehsPerHour="50.82970285496753"/>
  <flow id="JF39759" begin="1020" fromJunction="J2" toJunction="J4" end="1080" vehsPerHour="17.701471621921616"/>
  <flow id="JF39760" begin="1020" fromJunction="J3" toJunction="J2" end="1080" vehsPerHour="62.098974460734475"/>
  <flow id="JF39761" begin="1020" fromJunction="J3" toJunction="J4" end="1080" vehsPerHour="19.460867362941002"/>
  <flow id="JF39762" begin="1020" fromJunction="J4" toJunction="J0" end="1080" vehsPerHour="63.35811529882473"/>
  <flow id="JF39763" begin="1080" fromJunction="J0" toJunction="J2" end="1140" vehsPerHour="125.18009938322253"/>
  <flow id="JF39764" begin="1080" fromJunction="J0" toJunction="J3" end="1140" vehsPerHour="20.74970385551199"/>
  <flow id="JF39765" begin="1080" fromJunction="J2" toJunction="J3" end="1140" vehsPerHour="7.289728771522814"/>
  <flow id="JF39766" begin="1080" fromJunction="J3" toJunction="J0" end="1140" vehsPerHour="69.33563558899438"/>
  <flow id="JF39767" begin="1080" fromJunction="J3" toJunction="J4" end="1140" vehsPerHour="24.81507959833594"/>
  <flow id="JF39768" begin="1080" fromJunction="J4" toJunction="J2" end="1140" vehsPerHour="91.55301113831659"/>
  <flow id="JF39769" begin="1080" fromJunction="J4" toJunction="J3" end="1140" vehsPerHour="46.287973741790005"/>
  <flow id="JF39770" begin="1140" fromJunction="J0" toJunction="J2" end="1200" vehsPerHour="103.86962411600109"/>
  <flow id="JF39771" begin="1140" fromJunction="J0" toJunction="J3" end="1200" vehsPerHour="62.43476056770488"/>
  <flow id="JF39772" begin="1140" fromJunction="J2" toJunction="J0" end="1200" vehsPerHour="50.31234950040915"/>
  <flow id="JF39773" begin="1140" fromJunction="J2" toJunction="J3" end="1200" vehsPerHour="68.49914394693337"/>
  <flow id="JF39774" begin="1140" fromJunction="J2" toJunction="J4" end="1200" vehsPerHour="57.752590560954296"/>
  <flow id="JF39775" begin="1140" fromJunction="J3" toJunction="J0" end="1200" vehsPerHour="87.0142636753033"/>
  <flow id="JF39776" begin="1140" fromJunction="J3" toJunction="J2" end="1200" vehsPerHour="81.84515281393047"/>
  <flow id="JF39777" begin="1140" fromJunction="J3" toJunction="J4" end="1200" vehsPerHour="94.97227929214102"/>
  <flow id="JF39778" begin="1140" fromJunction="J4" toJunction="J2" end="1200" vehsPerHour="43.86393859044201"/>
  <flow id="JF39779" begin="1140" fromJunction="J4" toJunction="J3" end="1200" vehsPerHour="106.79646861465636"/>
  <flow id="JF39780" begin="1200" fromJunction="J0" toJunction="J2" end="1260" vehsPerHour="12.626842643990289"/>
  <flow id="JF39781" begin="1200" fromJunction="J0" toJunction="J4" end="1260" vehsPerHour="38.597989124214955"/>
  <flow id="JF39782" begin="1200" fromJunction="J2" toJunction="J3" end="1260" vehsPerHour="105.14047244370983"/>
  <flow id="JF39783" begin="1200" fromJunction="J2" toJunction="J4" end="1260" vehsPerHour="40.14349647600116"/>
  <flow id="JF39784" begin="1200" fromJunction="J3" toJunction="J0" end="1260" vehsPerHour="101.53161351660565"/>
  <flow id="JF39785" begin="1200" fromJunction="J4" toJunction="J3" end="1260" vehsPerHour="69.03095911085525"/>
  <flow id="JF39786" begin="1260" fromJunction="J0" toJunction="J2" end="1320" vehsPerHour="60.36929346637671"/>
  <flow id="JF39787" begin="1260" fromJunction="J0" toJunction="J3" end="1320" vehsPerHour="73.78181711875753"/>
  <flow id="JF39788" begin="1260" fromJunction="J2" toJunction="J3" end="1320" vehsPerHour="6.038837566498109"/>
  <flow id="JF39789" begin="1260" fromJunction="J2" toJunction="J4" end="1320" vehsPerHour="26.048153216892782"/>
  <flow id="JF39790" begin="1260" fromJunction="J3" toJunction="J2" end="1320" vehsPerHour="117.8685106502006"/>
  <flow id="JF39791" begin="1260" fromJunction="J3" toJunction="J4" end="1320" vehsPerHour="5.703496435962285"/>
  <flow id="JF39792" begin="1260" fromJunction="J4" toJunction="J0" end="1320" vehsPerHour="32.13816536358712"/>
  <flow id="JF39793" begin="1260" fromJunction="J4" toJunction="J2" end="1320" vehsPerHour="4.455535838624987"/>
  <flow id="JF39794" begin="1320" fromJunction="J0" toJunction="J3" end="1380" vehsPerHour="71.81679180621309"/>
  <flow id="JF39795" begin="1320" fromJunction="J0" toJunction="J4" end="1380" vehsPerHour="39.45678650683294"/>
  <flow id="JF39796" begin="1320" fromJunction="J2" toJunction="J0" end="1380" vehsPerHour="120.13995366298857"/>
  <flow id="JF39797" begin="1320" fromJunction="J2" toJunction="J3" end="1380" vehsPerHour="68.00108789634346"/>
  <flow id="JF39798" begin="1320" fromJunction="J2" toJunction="J4" end="1380" vehsPerHour="119.99243609901734"/>
  <flow id="JF39799" begin="1320" fromJunction="J3" toJunction="J0" end="1380" vehsPerHour="59.367449912425805"/>
  <flow id="JF39800" begin="1320" fromJunction="J3" toJunction="J2" end="1380" vehsPerHour="81.61269548760363"/>
  <flow id="JF39801" begin="1320" fromJunction="J3" toJunction="J4" end="1380" vehsPerHour="133.50915488581066"/>
  <flow id="JF39802" begin="1320" fromJunction="J4" toJunction="J0" end="1380" vehsPerHour="1.5225303683104268"/>
  <flow id="JF39803" begin="1320" fromJunction="J4" toJunction="J2" end="1380" vehsPerHour="103.54782997809431"/>
  <flow id="JF39804" begin="1320" fromJunction="J4" toJunction="J3" end="1380" vehsPerHour="98.87230459728347"/>
  <flow id="JF39805" begin="1380" fromJunction="J0" toJunction="J2" end="1440" vehsPerHour="41.62752490028867"/>
  <flow id="JF39806" begin="1380" fromJunction="J0" toJunction="J3" end="1440" vehsPerHour="63.927798576245685"/>
  <flow id="JF39807" begin="1380" fromJunction="J0" toJunction="J4" end="1440" vehsPerHour="5.5652200064451005"/>
  <flow id="JF39808" begin="1380" fromJunction="J2" toJunction="J0" end="1440" vehsPerHour="92.16591562231432"/>
  <flow id="JF39809" begin="1380" fromJunction="J2" toJunction="J3" end="1440" vehsPerHour="82.33958295088988"/>
  <flow id="JF39810" begin="1380" fromJunction="J3" toJunction="J2" end="1440" vehsPerHour="106.67991734316549"/>
  <flow id="JF39811" begin="1380" fromJunction="J3" toJunction="J4" end="1440" vehsPerHour="51.67424724680571"/>
  <flow id="JF39812" begin="1380" fromJunction="J4" toJunction="J0" end="1440" vehsPerHour="59.98651066896259"/>
  <flow id="JF39813" begin="1380" fromJunction="J4" toJunction="J2" end="1440" vehsPerHour="68.42326991442715"/>
  <flow id="JF39814" begin="1440" fromJunction="J0" toJunction="J2" end="1500" vehsPerHour="109.3790011359274"/>
  <flow id="JF39815" begin="1440" fromJunction="J2" toJunction="J3" end="1500" vehsPerHour="105.06372359966579"/>
  <flow id="JF39816" begin="1440" fromJunction="J3" toJunction="J0" end="1500" vehsPerHour="108.679574793124"/>
  <flow id="JF39817" begin="1440" fromJunction="J4" toJunction="J0" end="1500" vehsPerHour="121.1271110077307"/>
  <flow id="JF39818" begin="1440" fromJunction="J4" toJunction="J3" end="1500" vehsPerHour="96.24662135246062"/>
  <flow id="JF39819" begin="1500" fromJunction="J0" toJunction="J2" end="1560" vehsPerHour="81.46211335492166"/>
  <flow id="JF39820" begin="1500" fromJunction="J0" toJunction="J3" end="1560" vehsPerHour="60.872490064707016"/>
  <flow id="JF39821" begin="1500" fromJunction="J0" toJunction="J4" end="1560" vehsPerHour="103.63019699767702"/>
  <flow id="JF39822" begin="1500" fromJunction="J2" toJunction="J0" end="1560" vehsPerHour="84.88975728208935"/>
  <flow id="JF39823" begin="1500" fromJunction="J2" toJunction="J4" end="1560" vehsPerHour="118.61961822832913"/>
  <flow id="JF39824" begin="1500" fromJunction="J3" toJunction="J2" end="1560" vehsPerHour="34.69991362127023"/>
  <flow id="JF39825" begin="1500" fromJunction="J3" toJunction="J4" end="1560" vehsPerHour="105.55966050955134"/>
  <flow id="JF39826" begin="1500" fromJunction="J4" toJunction="J3" end="1560" vehsPerHour="34.59092987335839"/>
  <flow id="JF39827" begin="1560" fromJunction="J0" toJunction="J2" end="1620" vehsPerHour="129.80225416608064"/>
  <flow id="JF39828" begin="1560" fromJunction="J0" toJunction="J3" end="1620" vehsPerHour="134.94623397600049"/>
  <flow id="JF39829" begin="1560" fromJunction="J0" toJunction="J4" end="1620" vehsPerHour="27.415618934531917"/>
  <flow id="JF39830" begin="1560" fromJunction="J2" toJunction="J4" end="1620" vehsPerHour="112.06994432095549"/>
  <flow id="JF39831" begin="1560" fromJunction="J3" toJunction="J0" end="1620" vehsPerHour="33.8171425002661"/>
  <flow id="JF39832" begin="1560" fromJunction="J3" toJunction="J4" end="1620" vehsPerHour="30.467296966683005"/>
  <flow id="JF39833" begin="1560" fromJunction="J4" toJunction="J3" end="1620" vehsPerHour="4.804471477924369"/>
  <flow id="JF39834" begin="1620" fromJunction="J0" toJunction="J2" end="1680" vehsPerHour="10.497239751595687"/>
  <flow id="JF39835" begin="1620" fromJunction="J0" toJunction="J3" end="1680" vehsPerHour="45.522701829370796"/>
  <flow id="JF39836" begin="1620" fromJunction="J0" toJunction="J4" end="1680" vehsPerHour="53.823591009847796"/>
  <flow id="JF39837" begin="1620" fromJunction="J2" toJunction="J0" end="1680" vehsPerHour="133.3990791775261"/>
  <flow id="JF39838" begin="1620" fromJunction="J2" toJunction="J3" end="1680" vehsPerHour="25.329530223133485"/>
  <flow id="JF39839" begin="1620" fromJunction="J2" toJunction="J4" end="1680" vehsPerHour="60.881875989824756"/>
  <flow id="JF39840" begin="1620" fromJunction="J3" toJunction="J0" end="1680" vehsPerHour="114.81980560337186"/>
  <flow id="JF39841" begin="1620" fromJunction="J3" toJunction="J2" end="1680" vehsPerHour="40.03341407988508"/>
  <flow id="JF39842" begin="1620" fromJunction="J3" toJunction="J4" end="1680" vehsPerHour="40.417061321922986"/>
  <flow id="JF39843" begin="1620" fromJunction="J4" toJunction="J0" end="1680" vehsPerHour="24.970989566743082"/>
  <flow id="JF39844" begin="1620" fromJunction="J4" toJunction="J2" end="1680" vehsPerHour="126.00438050949383"/>
  <flow id="JF39845" begin="1620" fromJunction="J4" toJunction="J3" end="1680" vehsPerHour="89.94179146772105"/>
  <flow id="JF39846" begin="1680" fromJunction="J0" toJunction="J3" end="1740" vehsPerHour="112.81505759288389"/>
  <flow id="JF39847" begin="1680" fromJunction="J0" toJunction="J4" end="1740" vehsPerHour="29.71972317771392"/>
  <flow id="JF39848" begin="1680" fromJunction="J2" toJunction="J0" end="1740" vehsPerHour="37.23633895798516"/>
  <flow id="JF39849" begin="1680" fromJunction="J2" toJunction="J4" end="1740" vehsPerHour="16.335476853468347"/>
  <flow id="JF39850" begin="1680" fromJunction="J3" toJunction="J0" end="1740" vehsPerHour="14.724805401947053"/>
  <flow id="JF39851" begin="1680" fromJunction="J3" toJunction="J4" end="1740" vehsPerHour="5.620526524556735"/>
  <flow id="JF39852" begin="1680" fromJunction="J4" toJunction="J0" end="1740" vehsPerHour="26.633197325189585"/>
  <flow id="JF39853" begin="1680" fromJunction="J4" toJunction="J2" end="1740" vehsPerHour="103.23968079315034"/>
  <flow id="JF39854" begin="1680" fromJunction="J4" toJunction="J3" end="1740" vehsPerHour="113.28743958483274"/>
  <flow id="JF39855" begin="1740" fromJunction="J0" toJunction="J2" end="1800" vehsPerHour="24.050699457016336"/>
  <flow id="JF39856" begin="1740" fromJunction="J0" toJunction="J3" end="1800" vehsPerHour="61.253149013847946"/>
  <flow id="JF39857" begin="1740" fromJunction="J0" toJunction="J4" end="1800" vehsPerHour="93.3804733484967"/>
  <flow id="JF39858" begin="1740" fromJunction="J2" toJunction="J0" end="1800" vehsPerHour="33.6228284365289"/>
  <flow id="JF39859" begin="1740" fromJunction="J2" toJunction="J3" end="1800" vehsPerHour="70.21797930964067"/>
  <flow id="JF39860" begin="1740" fromJunction="J2" toJunction="J4" end="1800" vehsPerHour="70.24877773052559"/>
  <flow id="JF39861" begin="1740" fromJunction="J3" toJunction="J0" end="1800" vehsPerHour="64.29168884162195"/>
  <flow id="JF39862" begin="1740" fromJunction="J3" toJunction="J2" end="1800" vehsPerHour="112.60871095392373"/>
  <flow id="JF39863" begin="1740" fromJunction="J4" toJunction="J0" end="1800" vehsPerHour="70.43773488642789"/>
  <flow id="JF39864" begin="1740" fromJunction="J4" toJunction="J2" end="1800" vehsPerHour="52.37942890556636"/>
  <flow id="JF39865" begin="1740" fromJunction="J4" toJunction="J3" end="1800" vehsPerHour="31.974945421216507"/>
  <flow id="JF39866" begin="1800" fromJunction="J0" toJunction="J2" end="1860" vehsPerHour="19.849409989453303"/>
  <flow id="JF39867" begin="1800" fromJunction="J0" toJunction="J4" end="1860" vehsPerHour="7.66410887011651"/>
  <flow id="JF39868" begin="1800" fromJunction="J2" toJunction="J0" end="1860" vehsPerHour="13.386414170453754"/>
  <flow id="JF39869" begin="1800" fromJunction="J2" toJunction="J3" end="1860" vehsPerHour="79.96774014293383"/>
  <flow id="JF39870" begin="1800" fromJunction="J2" toJunction="J4" end="1860" vehsPerHour="61.698245337786275"/>
  <flow id="JF39871" begin="1800" fromJunction="J3" toJunction="J0" end="1860" vehsPerHour="24.140180777937054"/>