<?xml version="1.0" encoding="UTF-8"?>
<routes xmlns:xsi="http://www.w3.org/2001/XMLSchema-instance" xsi:noNamespaceSchemaLocation="http://sumo.dlr.de/xsd/routes_file.xsd">
  <flow id="JF38060" begin="0" fromJunction="J0" toJunction="J2" end="60" vehsPerHour="99.44425271667828"/>
  <flow id="JF38061" begin="0" fromJunction="J0" toJunction="J3" end="60" vehsPerHour="72.57486050384979"/>
  <flow id="JF38062" begin="0" fromJunction="J2" toJunction="J3" end="60" vehsPerHour="34.83653311524173"/>
  <flow id="JF38063" begin="0" fromJunction="J2" toJunction="J4" end="60" vehsPerHour="54.03765463716926"/>
  <flow id="JF38064" begin="0" fromJunction="J3" toJunction="J2" end="60" vehsPerHour="134.19888480249668"/>
  <flow id="JF38065" begin="0" fromJunction="J3" toJunction="J4" end="60" vehsPerHour="105.71791061852218"/>
  <flow id="JF38066" begin="0" fromJunction="J4" toJunction="J2" end="60" vehsPerHour="68.12425959766075"/>
  <flow id="JF38067" begin="60" fromJunction="J0" toJunction="J2" end="120" vehsPerHour="50.77384259179295"/>
  <flow id="JF38068" begin="60" fromJunction="J0" toJunction="J4" end="120" vehsPerHour="47.99023575959456"/>
  <flow id="JF38069" begin="60" fromJunction="J2" toJunction="J0" end="120" vehsPerHour="12.244421442345296"/>
  <flow id="JF38070" begin="60" fromJunction="J2" toJunction="J3" end="120" vehsPerHour="18.13525270482803"/>
  <flow id="JF38071" begin="60" fromJunction="J2" toJunction="J4" end="120" vehsPerHour="30.73920963627903"/>
  <flow id="JF38072" begin="60" fromJunction="J3" toJunction="J4" end="120" vehsPerHour="16.30257831240723"/>
  <flow id="JF38073" begin="60" fromJunction="J4" toJunction="J0" end="120" vehsPerHour="80.2839216821634"/>
  <flow id="JF38074" begin="60" fromJunction="J4" toJunction="J2" end="120" vehsPerHour="86.1904456161973"/>
  <flow id="JF38075" begin="60" fromJunction="J4" toJunction="J3" end="120" vehsPerHour="126.03554005895414"/>
  <flow id="JF38076" begin="120" fromJunction="J2" toJunction="J3" end="180" vehsPerHour="0.3361397017517863"/>
  <flow id="JF38077" begin="120" fromJunction="J2" toJunction="J4" end="180" vehsPerHour="11.657282722607507"/>
  <flow id="JF38078" begin="120" fromJunction="J3" toJunction="J0" end="180" vehsPerHour="43.164457316513285"/>
  <flow id="JF38079" begin="120" fromJunction="J3" toJunction="J2" end="180" vehsPerHour="23.41822546307344"/>
  <flow id="JF38080" begin="120" fromJunction="J3" toJunction="J4" end="180" vehsPerHour="74.87824391257355"/>
  <flow id="JF38081" begin="120" fromJunction="J4" toJunction="J3" end="180" vehsPerHour="52.96711306739001"/>
  <flow id="JF38082" begin="180" fromJunction="J0" toJunction="J2" end="240" vehsPerHour="78.22905530121461"/>
  <flow id="JF38083" begin="180" fromJunction="J0" toJunction="J4" end="240" vehsPerHour="118.08225966334436"/>
  <flow id="JF38084" begin="180" fromJunction="J2" toJunction="J0" end="240" vehsPerHour="113.86338637790828"/>
  <flow id="JF38085" begin="180" fromJunction="J2" toJunction="J3" end="240" vehsPerHour="45.62611876495831"/>
  <flow id="JF38086" begin="180" fromJunction="J2" toJunction="J4" end="240" vehsPerHour="93.40618769081019"/>
  <flow id="JF38087" begin="180" fromJunction="J3" toJunction="J0" end="240" vehsPerHour="98.34956048751897"/>
  <flow id="JF38088" begin="180" fromJunction="J3" toJunction="J2" end="240" vehsPerHour="63.76018086011535"/>
  <flow id="JF38089" begin="180" fromJunction="J3" toJunction="J4" end="240" vehsPerHour="7.541002671329714"/>
  <flow id="JF38090" begin="180" fromJunction="J4" toJunction="J0" end="240" vehsPerHour="120.7508665255368"/>
  <flow id="JF38091" begin="180" fromJunction="J4" toJunction="J2" end="240" vehsPerHour="61.34604519625283"/>
  <flow id="JF38092" begin="240" fromJunction="J0" toJunction="J2" end="300" vehsPerHour="89.47494200362036"/>
  <flow id="JF38093" begin="240" fromJunction="J2" toJunction="J0" end="300" vehsPerHour="81.6516206431893"/>
  <flow id="JF38094" begin="240" fromJunction="J2" toJunction="J3" end="300" vehsPerHour="67.89860964728591"/>
  <flow id="JF38095" begin="240" fromJunction="J3" toJunction="J0" end="300" vehsPerHour="56.31589823160252"/>
  <flow id="JF38096" begin="240" fromJunction="J3" toJunction="J2" end="300" vehsPerHour="135.86265848018712"/>
  <flow id="JF38097" begin="240" fromJunction="J4" toJunction="J0" end="300" vehsPerHour="67.74847568449498"/>
  <flow id="JF38098" begin="240" fromJunction="J4" toJunction="J2" end="300" vehsPerHour="117.49988838816665"/>
  <flow id="JF38099" begin="300" fromJunction="J0" toJunction="J2" end="360" vehsPerHour="108.08974936964088"/>
  <flow id="JF38100" begin="300" fromJunction="J0" toJunction="J4" end="360" vehsPerHour="132.2257398193709"/>
  <flow id="JF38101" begin="300" fromJunction="J2" toJunction="J4" end="360" vehsPerHour="26.22704432850654"/>
  <flow id="JF38102" begin="300" fromJunction="J3" toJunction="J2" end="360" vehsPerHour="113.0594274247977"/>
  <flow id="JF38103" begin="300" fromJunction="J3" toJunction="J4" end="360" vehsPerHour="82.45361835750231"/>
  <flow id="JF38104" begin="300" fromJunction="J4" toJunction="J0" end="360" vehsPerHour="30.528863003062554"/>
  <flow id="JF38105" begin="300" fromJunction="J4" toJunction="J2" end="360" vehsPerHour="75.20103655130393"/>
  <flow id="JF38106" begin="300" fromJunction="J4" toJunction="J3" end="360" vehsPerHour="32.00572857467307"/>
  <flow id="JF38107" begin="360" fromJunction="J0" toJunction="J2" end="420" vehsPerHour="53.425134936672436"/>
  <flow id="JF38108" begin="360" fromJunction="J0" toJunction="J4" end="420" vehsPerHour="123.43560880721427"/>
  <flow id="JF38109" begin="360" fromJunction="J2" toJunction="J0" end="420" vehsPerHour="89.19215590864822"/>
  <flow id="JF38110" begin="360" fromJunction="J2" toJunction="J3" end="420" vehsPerHour="50.26708824391326"/>
  <flow id="JF38111" begin="360" fromJunction="J2" toJunction="J4" end="420" vehsPerHour="48.85405309938823"/>
  <flow id="JF38112" begin="360" fromJunction="J3" toJunction="J4" end="420" vehsPerHour="38.27375098063618"/>
  <flow id="JF38113" begin="360" fromJunction="J4" toJunction="J2" end="420" vehsPerHour="3.09347874819775"/>
  <flow id="JF38114" begin="360" fromJunction="J4" toJunction="J3" end="420" vehsPerHour="81.8258513166223"/>
  <flow id="JF38115" begin="420" fromJunction="J0" toJunction="J2" end="480" vehsPerHour="132.98910334053292"/>
  <flow id="JF38116" begin="420" fromJunction="J0" toJunction="J3" end="480" vehsPerHour="32.7741293843296"/>
  <flow id="JF38117" begin="420" fromJunction="J0" toJunction="J4" end="480" vehsPerHour="115.01470346632713"/>
  <flow id="JF38118" begin="420" fromJunction="J2" toJunction="J0" end="480" vehsPerHour="35.330053622927124"/>
  <flow id="JF38119" begin="420" fromJunction="J2" toJunction="J3" end="480" vehsPerHour="101.28012141834473"/>
  <flow id="JF38120" begin="420" fromJunction="J2" toJunction="J4" end="480" vehsPerHour="117.92829664581349"/>
  <flow id="JF38121" begin="420" fromJunction="J3" toJunction="J2" end="480" vehsPerHour="121.06045559541506"/>
  <flow id="JF38122" begin="420" fromJunction="J3" toJunction="J4" end="480" vehsPerHour="82.8424701283836"/>
  <flow id="JF38123" begin="420" fromJunction="J4" toJunction="J0" end="480" vehsPerHour="52.66882049968318"/>
  <flow id="JF38124" begin="420" fromJunction="J4" toJunction="J2" end="480" vehsPerHour="43.809632144230775"/>
  <flow id="JF38125" begin="420" fromJunction="J4" toJunction="J3" end="480" vehsPerHour="35.10717991484606"/>
  <flow id="JF38126" begin="480" fromJunction="J0" toJunction="J2" end="540" vehsPerHour="130.27374237206314"/>
  <flow id="JF38127" begin="480" fromJunction="J0" toJunction="J3" end="540" vehsPerHour="9.77730975954284"/>
  <flow id="JF38128" begin="480" fromJunction="J2" toJunction="J0" end="540" vehsPerHour="125.07807275418598"/>
  <flow id="JF38129" begin="480" fromJunction="J2" toJunction="J3" end="540" vehsPerHour="98.524942690208"/>
  <flow id="JF38130" begin="480" fromJunction="J2" toJunction="J4" end="540" vehsPerHour="69.71958140795986"/>
  <flow id="JF38131" begin="480" fromJunction="J3" toJunction="J0" end="540" vehsPerHour="17.935749064003044"/>
  <flow id="JF38132" begin="480" fromJunction="J3" toJunction="J2" end="540" vehsPerHour="14.313015240934462"/>
  <flow id="JF38133" begin="480" fromJunction="J3" toJunction="J4" end="540" vehsPerHour="87.82490887295171"/>
  <flow id="JF38134" begin="480" fromJunction="J4" toJunction="J0" end="540" vehsPerHour="113.16115977539529"/>
  <flow id="JF38135" begin="480" fromJunction="J4" toJunction="J2" end="540" vehsPerHour="70.65118502823908"/>
  <flow id="JF38136" begin="480" fromJunction="J4" toJunction="J3" end="540" vehsPerHour="1.0172935169063144"/>
  <flow id="JF38137" begin="540" fromJunction="J0" toJunction="J4" end="600" vehsPerHour="46.15437278953967"/>
  <flow id="JF38138" begin="540" fromJunction="J2" toJunction="J0" end="600" vehsPerHour="93.32405630845744"/>
  <flow id="JF38139" begin="540" fromJunction="J2" toJunction="J3" end="600" vehsPerHour="107.44311600955074"/>
  <flow id="JF38140" begin="540" fromJunction="J2" toJunction="J4" end="600" vehsPerHour="53.10656363099067"/>
  <flow id="JF38141" begin="540" fromJunction="J3" toJunction="J0" end="600" vehsPerHour="128.5390551302095"/>
  <flow id="JF38142" begin="540" fromJunction="J3" toJunction="J2" end="600" vehsPerHour="132.2326281093185"/>
  <flow id="JF38143" begin="540" fromJunction="J3" toJunction="J4" end="600" vehsPerHour="119.51438895630804"/>
  <flow id="JF38144" begin="540" fromJunction="J4" toJunction="J0" end="600" vehsPerHour="74.85663824655292"/>
  <flow id="JF38145" begin="540" fromJunction="J4" toJunction="J3" end="600" vehsPerHour="82.62030955687547"/>
  <flow id="JF38146" begin="600" fromJunction="J2" toJunction="J3" end="660" vehsPerHour="111.84635967469917"/>
  <flow id="JF38147" begin="600" fromJunction="J2" toJunction="J4" end="660" vehsPerHour="73.22168350192835"/>
  <flow id="JF38148" begin="600" fromJunction="J3" toJunction="J0" end="660" vehsPerHour="133.13350128445794"/>
  <flow id="JF38149" begin="600" fromJunction="J3" toJunction="J2" end="660" vehsPerHour="127.61833858559635"/>
  <flow id="JF38150" begin="600" fromJunction="J3" toJunction="J4" end="660" vehsPerHour="13.862551027632367"/>
  <flow id="JF38151" begin="600" fromJunction="J4" toJunction="J0" end="660" vehsPerHour="50.75195005414387"/>
  <flow id="JF38152" begin="600" fromJunction="J4" toJunction="J2" end="660" vehsPerHour="45.89681176886724"/>
  <flow id="JF38153" begin="600" fromJunction="J4" toJunction="J3" end="660" vehsPerHour="16.256343195373002"/>
  <flow id="JF38154" begin="660" fromJunction="J0" toJunction="J3" end="720" vehsPerHour="25.518114867711876"/>
  <flow id="JF38155" begin="660" fromJunction="J0" toJunction="J4" end="720" vehsPerHour="0.5055004371830844"/>
  <flow id="JF38156" begin="660" fromJunction="J2" toJunction="J0" end="720" vehsPerHour="97.42715991232104"/>
  <flow id="JF38157" begin="660" fromJunction="J2" toJunction="J3" end="720" vehsPerHour="22.0584402530896"/>
  <flow id="JF38158" begin="660" fromJunction="J3" toJunction="J0" end="720" vehsPerHour="84.79430506948705"/>
  <flow id="JF38159" begin="660" fromJunction="J3" toJunction="J2" end="720" vehsPerHour="32.649179846282316"/>
  <flow id="JF38160" begin="660" fromJunction="J3" toJunction="J4" end="720" vehsPerHour="29.247028473608236"/>
  <flow id="JF38161" begin="660" fromJunction="J4" toJunction="J0" end="720" vehsPerHour="130.5662779516265"/>
  <flow id="JF38162" begin="660" fromJunction="J4" toJunction="J2" end="720" vehsPerHour="28.038596510030104"/>
  <flow id="JF38163" begin="720" fromJunction="J0" toJunction="J3" end="780" vehsPerHour="29.182334284939827"/>
  <flow id="JF38164" begin="720" fromJunction="J0" toJunction="J4" end="780" vehsPerHour="93.22113991214128"/>
  <flow id="JF38165" begin="720" fromJunction="J2" toJunction="J0" end="780" vehsPerHour="135.38254285481432"/>
  <flow id="JF38166" begin="720" fromJunction="J2" toJunction="J3" end="780" vehsPerHour="99.43257232129282"/>
  <flow id="JF38167" begin="720" fromJunction="J3" toJunction="J0" end="780" vehsPerHour="117.08463273734012"/>
  <flow id="JF38168" begin="720" fromJunction="J3" toJunction="J2" end="780" vehsPerHour="53.06809035685563"/>
  <flow id="JF38169" begin="720" fromJunction="J3" toJunction="J4" end="780" vehsPerHour="41.46729961173113"/>
  <flow id="JF38170" begin="720" fromJunction="J4" toJunction="J2" end="780" vehsPerHour="14.958949291657326"/>
  <flow id="JF38171" begin="720" fromJunction="J4" toJunction="J3" end="780" vehsPerHour="111.29581434436311"/>
  <flow id="JF38172" begin="780" fromJunction="J0" toJunction="J2" end="840" vehsPerHour="39.31982220946949"/>
  <flow id="JF38173" begin="780" fromJunction="J0" toJunction="J4" end="840" vehsPerHour="26.04953927692419"/>
  <flow id="JF38174" begin="780" fromJunction="J2" toJunction="J0" end="840" vehsPerHour="74.04649122998207"/>
  <flow id="JF38175" begin="780" fromJunction="J2" toJunction="J3" end="840" vehsPerHour="63.3049771894583"/>
  <flow id="JF38176" begin="780" fromJunction="J2" toJunction="J4" end="840" vehsPerHour="94.54629645468874"/>
  <flow id="JF38177" begin="780" fromJunction="J3" toJunction="J0" end="840" vehsPerHour="4.230201691658241"/>
  <flow id="JF38178" begin="780" fromJunction="J4" toJunction="J2" end="840" vehsPerHour="98.10286808404457"/>
  <flow id="JF38179" begin="780" fromJunction="J4" toJunction="J3" end="840" vehsPerHour="33.10077023707063"/>
  <flow id="JF38180" begin="840" fromJunction="J0" toJunction="J2" end="900" vehsPerHour="37.09190725764351"/>
  <flow id="JF38181" begin="840" fromJunction="J0" toJunction="J4" end="900" vehsPerHour="46.86625188260238"/>
  <flow id="JF38182" begin="840" fromJunction="J2" toJunction="J0" end="900" vehsPerHour="23.635896316459004"/>
  <flow id="JF38183" begin="840" fromJunction="J2" toJunction="J3" end="900" vehsPerHour="102.96301728327381"/>
  <flow id="JF38184" begin="840" fromJunction="J2" toJunction="J4" end="900" vehsPerHour="89.20060388423092"/>
  <flow id="JF38185" begin="840" fromJunction="J3" toJunction="J0" end="900" vehsPerHour="69.95944059958967"/>
  <flow id="JF38186" begin="840" fromJunction="J3" toJunction="J2" end="900" vehsPerHour="118.22781902473133"/>
  <flow id="JF38187" begin="840" fromJunction="J3" toJunction="J4" end="900" vehsPerHour="68.96606881257429"/>
  <flow id="JF38188" begin="840" fromJunction="J4" toJunction="J0" end="900" vehsPerHour="15.788460866875644"/>
  <flow id="JF38189" begin="840" fromJunction="J4" toJunction="J2" end="900" vehsPerHour="82.85236935519994"/>
  <flow id="JF38190" begin="900" fromJunction="J0" toJunction="J2" end="960" vehsPerHour="93.77680104959234"/>
  <flow id="JF38191" begin="900" fromJunction="J0" toJunction="J3" end="960" vehsPerHour="36.3873763783428"/>
  <flow id="JF38192" begin="900" fromJunction="J0" toJunction="J4" end="960" vehsPerHour="73.75455281548456"/>
  <flow id="JF38193" begin="900" fromJunction="J2" toJunction="J0" end="960" vehsPerHour="10.82077360422344"/>
  <flow id="JF38194" begin="900" fromJunction="J2" toJunction="J4" end="960" vehsPerHour="44.49488679399661"/>
  <flow id="JF38195" begin="900" fromJunction="J3" toJunction="J0" end="960" vehsPerHour="24.279536981797644"/>
  <flow id="JF38196" begin="900" fromJunction="J3" toJunction="J2" end="960" vehsPerHour="102.53153873241956"/>
  <flow id="JF38197" begin="900" fromJunction="J3" toJunction="J4" end="960" vehsPerHour="87.19499394606926"/>
  <flow id="JF38198" begin="900" fromJunction="J4" toJunction="J0" end="960" vehsPerHour="4.7287751227344845"/>
  <flow id="JF38199" begin="960" fromJunction="J0" toJunction="J4" end="1020" vehsPerHour="64.76972395483821"/>
  <flow id="JF38200" begin="960" fromJunction="J2" toJunction="J0" end="1020" vehsPerHour="22.488091185718645"/>
  <flow id="JF38201" begin="960" fromJunction="J2" toJunction="J3" end="1020" vehsPerHour="125.19934031093176"/>
  <flow id="JF38202" begin="960" fromJunction="J3" toJunction="J0" end="1020" vehsPerHour="69.67787503374687"/>
  <flow id="JF38203" begin="960" fromJunction="J3" toJunction="J2" end="1020" vehsPerHour="53.21615977629121"/>
  <flow id="JF38204" begin="960" fromJunction="J3" toJunction="J4" end="1020" vehsPerHour="51.57067006725729"/>
  <flow id="JF38205" begin="960" fromJunction="J4" toJunction="J0" end="1020" vehsPerHour="136.46501788164477"/>
  <flow id="JF38206" begin="960" fromJunction="J4" toJunction="J2" end="1020" vehsPerHour="136.62570417093525"/>
  <flow id="JF38207" begin="960" fromJunction="J4" toJunction="J3" end="1020" vehsPerHour="82.6956725110928"/>
  <flow id="JF38208" begin="1020" fromJunction="J0" toJunction="J4" end="1080" vehsPerHour="18.241006605060058"/>
  <flow id="JF38209" begin="1020" fromJunction="J2" toJunction="J3" end="1080" vehsPerHour="58.40691358888464"/>
  <flow id="JF38210" begin="1020" fromJunction="J2" toJunction="J4" end="1080" vehsPerHour="9.90197649272995"/>
  <flow id="JF38211" begin="1020" fromJunction="J3" toJunction="J2" end="1080" vehsPerHour="58.2184595843496"/>
  <flow id="JF38212" begin="1020" fromJunction="J3" toJunction="J4" end="1080" vehsPerHour="37.90083713677052"/>
  <flow id="JF38213" begin="1020" fromJunction="J4" toJunction="J0" end="1080" vehsPerHour="112.84059897079611"/>
  <flow id="JF38214" begin="1020" fromJunction="J4" toJunction="J2" end="1080" vehsPerHour="40.48684450088112"/>
  <flow id="JF38215" begin="1080" fromJunction="J0" toJunction="J2" end="1140" vehsPerHour="107.36742846638293"/>
  <flow id="JF38216" begin="1080" fromJunction="J0" toJunction="J4" end="1140" vehsPerHour="55.32783300524704"/>
  <flow id="JF38217" begin="1080" fromJunction="J2" toJunction="J0" end="1140" vehsPerHour="116.28116498157418"/>
  <flow id="JF38218" begin="1080" fromJunction="J2" toJunction="J3" end="1140" vehsPerHour="115.9000828771976"/>
  <flow id="JF38219" begin="1080" fromJunction="J2" toJunction="J4" end="1140" vehsPerHour="39.587359990949196"/>
  <flow id="JF38220" begin="1080" fromJunction="J3" toJunction="J2" end="1140" vehsPerHour="123.09500469602587"/>
  <flow id="JF38221" begin="1080" fromJunction="J3" toJunction="J4" end="1140" vehsPerHour="124.47571911082615"/>
  <flow id="JF38222" begin="1080" fromJunction="J4" toJunction="J0" end="1140" vehsPerHour="116.37839227648024"/>
  <flow id="JF38223" begin="1140" fromJunction="J0" toJunction="J2" end="1200" vehsPerHour="12.630559328219032"/>
  <flow id="JF38224" begin="1140" fromJunction="J0" toJunction="J4" end="1200" vehsPerHour="96.68641348467291"/>
  <flow id="JF38225" begin="1140" fromJunction="J2" toJunction="J3" end="1200" vehsPerHour="11.493127325680772"/>
  <flow id="JF38226" begin="1140" fromJunction="J3" toJunction="J0" end="1200" vehsPerHour="69.73051913980395"/>
  <flow id="JF38227" begin="1140" fromJunction="J3" toJunction="J2" end="1200" vehsPerHour="36.14884145406995"/>
  <flow id="JF38228" begin="1140" fromJunction="J3" toJunction="J4" end="1200" vehsPerHour="82.27697901813535"/>
  <flow id="JF38229" begin="1140" fromJunction="J4" toJunction="J0" end="1200" vehsPerHour="100.0574382163217"/>
  <flow id="JF38230" begin="1140" fromJunction="J4" toJunction="J2" end="1200" vehsPerHour="127.8449935995457"/>
  <flow id="JF38231" begin="1200" fromJunction="J2" toJunction="J0" end="1260" vehsPerHour="52.46596316995885"/>
  <flow id="JF38232" begin="1200" fromJunction="J2" toJunction="J3" end="1260" vehsPerHour="121.87367915769308"/>
  <flow id="JF38233" begin="1200" fromJunction="J2" toJunction="J4" end="1260" vehsPerHour="51.988529861478376"/>
  <flow id="JF38234" begin="1200" fromJunction="J3" toJunction="J0" end="1260" vehsPerHour="5.255921168257195"/>
  <flow id="JF38235" begin="1200" fromJunction="J3" toJunction="J2" end="1260" vehsPerHour="67.16415535146734"/>
  <flow id="JF38236" begin="1200" fromJunction="J3" toJunction="J4" end="1260" vehsPerHour="49.468346358527455"/>
  <flow id="JF38237" begin="1200" fromJunction="J4" toJunction="J0" end="1260" vehsPerHour="134.95897324616382"/>
  <flow id="JF38238" begin="1200" fromJunction="J4" toJunction="J2" end="1260" vehsPerHour="130.36344199647618"/>
  <flow id="JF38239" begin="1200" fromJunction="J4" toJunction="J3" end="1260" vehsPerHour="93.44819960883856"/>
  <flow id="JF38240" begin="1260" fromJunction="J0" toJunction="J2" end="1320" vehsPerHour="67.08469228262213"/>
  <flow id="JF38241" begin="1260" fromJunction="J0" toJunction="J3" end="1320" vehsPerHour="47.43405537340299"/>
  <flow id="JF38242" begin="1260" fromJunction="J0" toJunction="J4" end="1320" vehsPerHour="6.908153195172198"/>
  <flow id="JF38243" begin="1260" fromJunction="J2" toJunction="J0" end="1320" vehsPerHour="75.05422505488825"/>
  <flow id="JF38244" begin="1260" fromJunction="J2" toJunction="J4" end="1320" vehsPerHour="76.25291542712901"/>
  <flow id="JF38245" begin="1260" fromJunction="J3" toJunction="J2" end="1320" vehsPerHour="123.39949698734509"/>
  <flow id="JF38246" begin="1260" fromJunction="J3" toJunction="J4" end="1320" vehsPerHour="9.533891893346153"/>
  <flow id="JF38247" begin="1260" fromJunction="J4" toJunction="J0" end="1320" vehsPerHour="121.02907521619086"/>
  <flow id="JF38248" begin="1260" fromJunction="J4" toJunction="J2" end="1320" vehsPerHour="17.855533538835527"/>
  <flow id="JF38249" begin="1260" fromJunction="J4" toJunction="J3" end="1320" vehsPerHour="131.06545416864992"/>
  <flow id="JF38250" begin="1320" fromJunction="J0" toJunction="J3" end="1380" vehsPerHour="120.87001017224857"/>
  <flow id="JF38251" begin="1320" fromJunction="J0" toJunction="J4" end="1380" vehsPerHour="123.67142257210897"/>
  <flow id="JF38252" begin="1320" fromJunction="J2" toJunction="J3" end="1380" vehsPerHour="20.3494159172667"/>
  <flow id="JF38253" begin="1320" fromJunction="J2" toJunction="J4" end="1380" vehsPerHour="19.26541516268643"/>
  <flow id="JF38254" begin="1320" fromJunction="J3" toJunction="J2" end="1380" vehsPerHour="21.653586333908546"/>
  <flow id="JF38255" begin="1320" fromJunction="J3" toJunction="J4" end="1380" vehsPerHour="104.84004661127645"/>
  <flow id="JF38256" begin="1320" fromJunction="J4" toJunction="J2" end="1380" vehsPerHour="112.55269708841658"/>
  <flow id="JF38257" begin="1380" fromJunction="J0" toJunction="J2" end="1440" vehsPerHour="119.3989234780128"/>
  <flow id="JF38258" begin="1380" fromJunction="J0" toJunction="J4" end="1440" vehsPerHour="47.32873637820739"/>
  <flow id="JF38259" begin="1380" fromJunction="J2" toJunction="J0" end="1440" vehsPerHour="131.884876226736"/>
  <flow id="JF38260" begin="1380" fromJunction="J2" toJunction="J3" end="1440" vehsPerHour="52.00379874004721"/>
  <flow id="JF38261" begin="1380" fromJunction="J3" toJunction="J0" end="1440" vehsPerHour="5.725225253464682"/>
  <flow id="JF38262" begin="1380" fromJunction="J3" toJunction="J4" end="1440" vehsPerHour="69.25805461565962"/>
  <flow id="JF38263" begin="1380" fromJunction="J4" toJunction="J0" end="1440" vehsPerHour="1.1136448210961019"/>
  <flow id="JF38264" begin="1380" fromJunction="J4" toJunction="J3" end="1440" vehsPerHour="116.94292213227568"/>
  <flow id="JF38265" begin="1440" fromJunction="J0" toJunction="J2" end="1500" vehsPerHour="30.991357640755595"/>
  <flow id="JF38266" begin="1440" fromJunction="J0" toJunction="J3" end="1500" vehsPerHour="21.022583597124704"/>
  <flow id="JF38267" begin="1440" fromJunction="J0" toJunction="J4" end="1500" vehsPerHour="11.043191414731837"/>
  <flow id="JF38268" begin="1440" fromJunction="J2" toJunction="J0" end="1500" vehsPerHour="91.85491841452999"/>
  <flow id="JF38269" begin="1440" fromJunction="J2" toJunction="J4" end="1500" vehsPerHour="117.58080797828289"/>
  <flow id="JF38270" begin="1440" fromJunction="J3" toJunction="J0" end="1500" vehsPerHour="93.82277056474898"/>
  <flow id="JF38271" begin="1440" fromJunction="J3" toJunction="J4" end="1500" vehsPerHour="104.70081397142275"/>
  <flow id="JF38272" begin="1440" fromJunction="J4" toJunction="J2" end="1500" vehsPerHour="39.755577745768605"/>
  <flow id="JF38273" begin="1500" fromJunction="J0" toJunction="J3" end="1560" vehsPerHour="90.19614060094811"/>
  <flow id="JF38274" begin="1500" fromJunction="J0" toJunction="J4" end="1560" vehsPerHour="48.02205391816727"/>
  <flow id="JF38275" begin="1500" fromJunction="J2" toJunction="J0" end="1560" vehsPerHour="15.495891034303034"/>
  <flow id="JF38276" begin="1500" fromJunction="J2" toJunction="J3" end="1560" vehsPerHour="14.64479042949996"/>
  <flow id="JF38277" begin="1500" fromJunction="J2" toJunction="J4" end="1560" vehsPerHour="92.15071978483627"/>
  <flow id="JF38278" begin="1500" fromJunction="J3" toJunction="J0" end="1560" vehsPerHour="114.67708801297478"/>
  <flow id="JF38279" begin="1500" fromJunction="J3" toJunction="J2" end="1560" vehsPerHour="1.0090091818873503"/>
  <flow id="JF38280" begin="1500" fromJunction="J4" toJunction="J0" end="1560" vehsPerHour="107.8377349895894"/>
  <flow id="JF38281" begin="1560" fromJunction="J0" toJunction="J2" end="1620" vehsPerHour="79.12490666458515"/>
  <flow id="JF38282" begin="1560" fromJunction="J0" toJunction="J3" end="1620" vehsPerHour="123.54630854342827"/>
  <flow id="JF38283" begin="1560" fromJunction="J0" toJunction="J4" end="1620" vehsPerHour="82.78617741414676"/>
  <flow id="JF38284" begin="1560" fromJunction="J2" toJunction="J0" end="1620" vehsPerHour="98.1225403669083"/>
  <flow id="JF38285" begin="1560" fromJunction="J2" toJunction="J4" end="1620" vehsPerHour="65.3413849634075"/>
  <flow id="JF38286" begin="1560" fromJunction="J3" toJunction="J0" end="1620" vehsPerHour="37.82656506714435"/>
  <flow id="JF38287" begin="1560" fromJunction="J3" toJunction="J2" end="1620" vehsPerHour="101.19782855043808"/>
  <flow id="JF38288" begin="1560" fromJunction="J3" toJunction="J4" end="1620" vehsPerHour="95.51989001438851"/>
  <flow id="JF38289" begin="1560" fromJunction="J4" toJunction="J3" end="1620" vehsPerHour="137.18919302522335"/>
  <flow id="JF38290" begin="1620" fromJunction="J0" toJunction="J2" end="1680" vehsPerHour="92.99583848375953"/>
  <flow id="JF38291" begin="1620" fromJunction="J0" toJunction="J4" end="1680" vehsPerHour="98.59109040913785"/>
  <flow id="JF38292" begin="1620" fromJunction="J2" toJunction="J4" end="1680" vehsPerHour="109.43866629523346"/>
  <flow id="JF38293" begin="1620" fromJunction="J3" toJunction="J0" end="1680" vehsPerHour="40.683530275085054"/>
  <flow id="JF38294" begin="1620" fromJunction="J3" toJunction="J4" end="1680" vehsPerHour="127.03632225621945"/>
  <flow id="JF38295" begin="1620" fromJunction="J4" toJunction="J0" end="1680" vehsPerHour="67.0617103244564"/>
  <flow id="JF38296" begin="1620" fromJunction="J4" toJunction="J2" end="1680" vehsPerHour="95.26919305942295"/>
  <flow id="JF38297" begin="1620" fromJunction="J4" toJunction="J3" end="1680" vehsPerHour="12.299377087357596"/>
  <flow id="JF38298" begin="1680" fromJunction="J0" toJunction="J2" end="1740" vehsPerHour="124.88744204502112"/>
  <flow id="JF38299" begin="1680" fromJunction="J0" toJunction="J4" end="1740" vehsPerHour="17.342059363430987"/>
  <flow id="JF38300" begin="1680" fromJunction="J2" toJunction="J0" end="1740" vehsPerHour="115.54324789104865"/>
  <flow id="JF38301" begin="1680" fromJunction="J2" toJunction="J3" end="1740" vehsPerHour="85.29854043291576"/>
  <flow id="JF38302" begin="1680" fromJunction="J3" toJunction="J2" end="1740" vehsPerHour="35.68818242648557"/>
  <flow id="JF38303" begin="1680" fromJunction="J4" toJunction="J0" end="1740" vehsPerHour="119.13158268011654"/>
  <flow id="JF38304" begin="1680" fromJunction="J4" toJunction="J2" end="1740" vehsPerHour="53.723726746827055"/>
  <flow id="JF38305" begin="1740" fromJunction="J0" toJunction="J2" end="1800" vehsPerHour="19.532357565368873"/>
  <flow id="JF38306" begin="1740" fromJunction="J0" toJunction="J4" end="1800" vehsPerHour="113.5730662349561"/>
  <flow id="JF38307" begin="1740" fromJunction="J2" toJunction="J0" end="1800" vehsPerHour="55.95213360757921"/>
  <flow id="JF38308" begin="1740" fromJunction="J2" toJunction="J3" end="1800" vehsPerHour="80.59034272165817"/>
  <flow id="JF38309" begin="1740" fromJunction="J2" toJunction="J4" end="1800" vehsPerHour="22.400168388485632"/>
  <flow id="JF38310" begin="1740" fromJunction="J3" toJunction="J4" end="1800" vehsPerHour="92.10676068887216"/>
  <flow id="JF38311" begin="1740" fromJunction="J4" toJunction="J2" end="1800" vehsPerHour="68.00445335178355"/>
  <flow id="JF38312" begin="1800" fromJunction="J0" toJunction="J2" end="1860" vehsPerHour="18.969927763526865"/>
  <flow id="JF38313" begin="1800" fromJunction="J0" toJunction="J3" end="1860" vehsPerHour="131.71950121584524"/>
  <flow id="JF38314" begin="1800" fromJunction="J0" toJunction="J4" end="1860" vehsPerHour="60.62451905730723"/>
  <flow id="JF38315" begin="1800" fromJunction="J2" toJunction="J0" end="1860" vehsPerHour="104.62979875684262"/>
  <flow id="JF38316" begin="1800" fromJunction="J2" toJunction="J3" end="1860" vehsPerHour="49.33482695329656"/>
  <flow id="JF38317" begin="1800" fromJunction="J3" toJunction="J0" end="1860" vehsPerHour="47.07587002626183"/>
  <flow id="JF38318" begin="1800" fromJunction="J4" toJunction="J0" end="1860" vehsPerHour="109.6432826308881"/>
  <flow id="JF38319" begin="1800" fromJunction="J4" toJunction="J2" end="1860" vehsPerHour="128.0956671176675"/>
  <flow id="JF38320" begin="1800" fromJunction="J4" toJunction="J3" end="1860" vehsPerHour="59.10559605046854"/>
  <flow id="JF38321" begin="1860" fromJunction="J0" toJunction="J2" end="1920" vehsPerHour="85.04097142274553"/>
  <flow id="JF38322" begin="1860" fromJunction="J0" toJunction="J4" end="1920" vehsPerHour="78.73507623751284"/>
  <flow id="JF38323" begin="1860" fromJunction="J2" toJunction="J3" end="1920" vehsPerHour="24.872353704541215"/>
  <flow id="JF38324" begin="1860" fromJunction="J2" toJunction="J4" end="1920" vehsPerHour="28.42022256869945"/>