<?xml version="1.0" encoding="UTF-8"?>
<routes xmlns:xsi="http://www.w3.org/2001/XMLSchema-instance" xsi:noNamespaceSchemaLocation="http://sumo.dlr.de/xsd/routes_file.xsd">
  <flow id="JF41174" begin="0" fromJunction="J0" toJunction="J2" end="60" vehsPerHour="17.295245871788644"/>
  <flow id="JF41175" begin="0" fromJunction="J0" toJunction="J3" end="60" vehsPerHour="119.03937147567977"/>
  <flow id="JF41176" begin="0" fromJunction="J2" toJunction="J3" end="60" vehsPerHour="26.12413814400631"/>
  <flow id="JF41177" begin="0" fromJunction="J3" toJunction="J0" end="60" vehsPerHour="69.55925072304167"/>
  <flow id="JF41178" begin="0" fromJunction="J3" toJunction="J2" end="60" vehsPerHour="37.53236725052687"/>
  <flow id="JF41179" begin="0" fromJunction="J3" toJunction="J4" end="60" vehsPerHour="51.08005569648143"/>
  <flow id="JF41180" begin="0" fromJunction="J4" toJunction="J0" end="60" vehsPerHour="4.690114738476945"/>
  <flow id="JF41181" begin="0" fromJunction="J4" toJunction="J3" end="60" vehsPerHour="116.43019852958894"/>
  <flow id="JF41182" begin="60" fromJunction="J0" toJunction="J2" end="120" vehsPerHour="26.126383916890934"/>
  <flow id="JF41183" begin="60" fromJunction="J2" toJunction="J0" end="120" vehsPerHour="71.77993644407336"/>
  <flow id="JF41184" begin="60" fromJunction="J2" toJunction="J3" end="120" vehsPerHour="132.4317319585189"/>
  <flow id="JF41185" begin="60" fromJunction="J2" toJunction="J4" end="120" vehsPerHour="85.6678159647022"/>
  <flow id="JF41186" begin="60" fromJunction="J3" toJunction="J2" end="120" vehsPerHour="38.05975452806668"/>
  <flow id="JF41187" begin="60" fromJunction="J3" toJunction="J4" end="120" vehsPerHour="31.703880683432203"/>
  <flow id="JF41188" begin="120" fromJunction="J0" toJunction="J2" end="180" vehsPerHour="99.40848758943247"/>
  <flow id="JF41189" begin="120" fromJunction="J0" toJunction="J3" end="180" vehsPerHour="120.55307977244512"/>
  <flow id="JF41190" begin="120" fromJunction="J0" toJunction="J4" end="180" vehsPerHour="13.645844583418954"/>
  <flow id="JF41191" begin="120" fromJunction="J2" toJunction="J0" end="180" vehsPerHour="4.507690770021313"/>
  <flow id="JF41192" begin="120" fromJunction="J2" toJunction="J3" end="180" vehsPerHour="112.8160658706889"/>
  <flow id="JF41193" begin="120" fromJunction="J3" toJunction="J0" end="180" vehsPerHour="0.11353661876752062"/>
  <flow id="JF41194" begin="120" fromJunction="J3" toJunction="J2" end="180" vehsPerHour="21.61438814994847"/>
  <flow id="JF41195" begin="120" fromJunction="J3" toJunction="J4" end="180" vehsPerHour="32.52856389492099"/>
  <flow id="JF41196" begin="120" fromJunction="J4" toJunction="J0" end="180" vehsPerHour="41.22676493253516"/>
  <flow id="JF41197" begin="120" fromJunction="J4" toJunction="J2" end="180" vehsPerHour="84.50714556599058"/>
  <flow id="JF41198" begin="120" fromJunction="J4" toJunction="J3" end="180" vehsPerHour="3.7741096738418918"/>
  <flow id="JF41199" begin="180" fromJunction="J0" toJunction="J2" end="240" vehsPerHour="8.324981579769002"/>
  <flow id="JF41200" begin="180" fromJunction="J0" toJunction="J3" end="240" vehsPerHour="4.908180390711453"/>
  <flow id="JF41201" begin="180" fromJunction="J0" toJunction="J4" end="240" vehsPerHour="99.12994411995595"/>
  <flow id="JF41202" begin="180" fromJunction="J2" toJunction="J4" end="240" vehsPerHour="88.30485891048626"/>
  <flow id="JF41203" begin="180" fromJunction="J3" toJunction="J0" end="240" vehsPerHour="65.10727355202533"/>
  <flow id="JF41204" begin="180" fromJunction="J3" toJunction="J2" end="240" vehsPerHour="60.59039752451625"/>
  <flow id="JF41205" begin="180" fromJunction="J3" toJunction="J4" end="240" vehsPerHour="84.08683159865238"/>
  <flow id="JF41206" begin="180" fromJunction="J4" toJunction="J0" end="240" vehsPerHour="128.69235545116229"/>
  <flow id="JF41207" begin="180" fromJunction="J4" toJunction="J3" end="240" vehsPerHour="35.034187156617804"/>
  <flow id="JF41208" begin="240" fromJunction="J0" toJunction="J2" end="300" vehsPerHour="57.436263039422236"/>
  <flow id="JF41209" begin="240" fromJunction="J0" toJunction="J4" end="300" vehsPerHour="118.56090660536107"/>
  <flow id="JF41210" begin="240" fromJunction="J2" toJunction="J0" end="300" vehsPerHour="19.313854490290794"/>
  <flow id="JF41211" begin="240" fromJunction="J2" toJunction="J3" end="300" vehsPerHour="56.023595987384354"/>
  <flow id="JF41212" begin="240" fromJunction="J2" toJunction="J4" end="300" vehsPerHour="61.69750453808833"/>
  <flow id="JF41213" begin="240" fromJunction="J3" toJunction="J2" end="300" vehsPerHour="18.385755089556927"/>
  <flow id="JF41214" begin="240" fromJunction="J4" toJunction="J2" end="300" vehsPerHour="108.57764489919076"/>
  <flow id="JF41215" begin="240" fromJunction="J4" toJunction="J3" end="300" vehsPerHour="32.71553690653736"/>
  <flow id="JF41216" begin="300" fromJunction="J0" toJunction="J2" end="360" vehsPerHour="43.91247184254234"/>
  <flow id="JF41217" begin="300" fromJunction="J0" toJunction="J3" end="360" vehsPerHour="54.68536928534678"/>
  <flow id="JF41218" begin="300" fromJunction="J0" toJunction="J4" end="360" vehsPerHour="70.48639082352881"/>
  <flow id="JF41219" begin="300" fromJunction="J2" toJunction="J0" end="360" vehsPerHour="89.78770552114267"/>
  <flow id="JF41220" begin="300" fromJunction="J2" toJunction="J3" end="360" vehsPerHour="123.7112695180997"/>
  <flow id="JF41221" begin="300" fromJunction="J2" toJunction="J4" end="360" vehsPerHour="106.38945663458948"/>
  <flow id="JF41222" begin="300" fromJunction="J3" toJunction="J0" end="360" vehsPerHour="25.501276278597384"/>
  <flow id="JF41223" begin="300" fromJunction="J3" toJunction="J2" end="360" vehsPerHour="28.499370866709608"/>
  <flow id="JF41224" begin="300" fromJunction="J3" toJunction="J4" end="360" vehsPerHour="85.39075806005327"/>
  <flow id="JF41225" begin="300" fromJunction="J4" toJunction="J0" end="360" vehsPerHour="84.77212471139472"/>
  <flow id="JF41226" begin="300" fromJunction="J4" toJunction="J3" end="360" vehsPerHour="22.558159394862223"/>
  <flow id="JF41227" begin="360" fromJunction="J0" toJunction="J2" end="420" vehsPerHour="89.73026287204833"/>
  <flow id="JF41228" begin="360" fromJunction="J0" toJunction="J3" end="420" vehsPerHour="109.5276170311704"/>
  <flow id="JF41229" begin="360" fromJunction="J0" toJunction="J4" end="420" vehsPerHour="81.2953968252147"/>
  <flow id="JF41230" begin="360" fromJunction="J2" toJunction="J0" end="420" vehsPerHour="12.990329292886543"/>
  <flow id="JF41231" begin="360" fromJunction="J2" toJunction="J4" end="420" vehsPerHour="130.3793837767975"/>
  <flow id="JF41232" begin="360" fromJunction="J3" toJunction="J0" end="420" vehsPerHour="124.41159695552247"/>
  <flow id="JF41233" begin="360" fromJunction="J3" toJunction="J2" end="420" vehsPerHour="67.07702747531886"/>
  <flow id="JF41234" begin="360" fromJunction="J3" toJunction="J4" end="420" vehsPerHour="115.84879762329697"/>
  <flow id="JF41235" begin="360" fromJunction="J4" toJunction="J0" end="420" vehsPerHour="95.81804676834241"/>
  <flow id="JF41236" begin="360" fromJunction="J4" toJunction="J2" end="420" vehsPerHour="56.91982348476615"/>
  <flow id="JF41237" begin="360" fromJunction="J4" toJunction="J3" end="420" vehsPerHour="107.75523807363719"/>
  <flow id="JF41238" begin="420" fromJunction="J0" toJunction="J3" end="480" vehsPerHour="96.44071859188782"/>
  <flow id="JF41239" begin="420" fromJunction="J0" toJunction="J4" end="480" vehsPerHour="93.81488607340032"/>
  <flow id="JF41240" begin="420" fromJunction="J2" toJunction="J4" end="480" vehsPerHour="66.79592758613511"/>
  <flow id="JF41241" begin="420" fromJunction="J3" toJunction="J0" end="480" vehsPerHour="47.452081615147854"/>
  <flow id="JF41242" begin="420" fromJunction="J3" toJunction="J4" end="480" vehsPerHour="5.700293510424489"/>
  <flow id="JF41243" begin="420" fromJunction="J4" toJunction="J2" end="480" vehsPerHour="81.47768348108829"/>
  <flow id="JF41244" begin="420" fromJunction="J4" toJunction="J3" end="480" vehsPerHour="129.32007108326366"/>
  <flow id="JF41245" begin="480" fromJunction="J0" toJunction="J2" end="540" vehsPerHour="45.81760944305839"/>
  <flow id="JF41246" begin="480" fromJunction="J0" toJunction="J3" end="540" vehsPerHour="69.58001667880754"/>
  <flow id="JF41247" begin="480" fromJunction="J0" toJunction="J4" end="540" vehsPerHour="120.44869016178215"/>
  <flow id="JF41248" begin="480" fromJunction="J2" toJunction="J0" end="540" vehsPerHour="26.122169047303366"/>
  <flow id="JF41249" begin="480" fromJunction="J2" toJunction="J3" end="540" vehsPerHour="79.95363237807639"/>
  <flow id="JF41250" begin="480" fromJunction="J2" toJunction="J4" end="540" vehsPerHour="93.61181040433499"/>
  <flow id="JF41251" begin="480" fromJunction="J3" toJunction="J0" end="540" vehsPerHour="44.4391848808531"/>
  <flow id="JF41252" begin="480" fromJunction="J3" toJunction="J2" end="540" vehsPerHour="97.79565823407775"/>
  <flow id="JF41253" begin="480" fromJunction="J3" toJunction="J4" end="540" vehsPerHour="102.14234629279288"/>
  <flow id="JF41254" begin="480" fromJunction="J4" toJunction="J0" end="540" vehsPerHour="128.70613953224685"/>
  <flow id="JF41255" begin="480" fromJunction="J4" toJunction="J2" end="540" vehsPerHour="94.11009697856353"/>
  <flow id="JF41256" begin="480" fromJunction="J4" toJunction="J3" end="540" vehsPerHour="125.22808161938661"/>
  <flow id="JF41257" begin="540" fromJunction="J0" toJunction="J2" end="600" vehsPerHour="0.9560037099322163"/>
  <flow id="JF41258" begin="540" fromJunction="J0" toJunction="J3" end="600" vehsPerHour="132.80017163405455"/>
  <flow id="JF41259" begin="540" fromJunction="J0" toJunction="J4" end="600" vehsPerHour="38.79820565749093"/>
  <flow id="JF41260" begin="540" fromJunction="J2" toJunction="J0" end="600" vehsPerHour="77.45073356729141"/>
  <flow id="JF41261" begin="540" fromJunction="J2" toJunction="J3" end="600" vehsPerHour="24.523804839706134"/>
  <flow id="JF41262" begin="540" fromJunction="J2" toJunction="J4" end="600" vehsPerHour="65.30853998987567"/>
  <flow id="JF41263" begin="540" fromJunction="J3" toJunction="J0" end="600" vehsPerHour="77.3028549429308"/>
  <flow id="JF41264" begin="540" fromJunction="J3" toJunction="J2" end="600" vehsPerHour="69.34124043119068"/>
  <flow id="JF41265" begin="540" fromJunction="J3" toJunction="J4" end="600" vehsPerHour="135.3297909905016"/>
  <flow id="JF41266" begin="540" fromJunction="J4" toJunction="J2" end="600" vehsPerHour="85.61300453263235"/>
  <flow id="JF41267" begin="540" fromJunction="J4" toJunction="J3" end="600" vehsPerHour="117.80561164991397"/>
  <flow id="JF41268" begin="600" fromJunction="J0" toJunction="J2" end="660" vehsPerHour="11.62438664633951"/>
  <flow id="JF41269" begin="600" fromJunction="J2" toJunction="J3" end="660" vehsPerHour="94.0892095556467"/>
  <flow id="JF41270" begin="600" fromJunction="J2" toJunction="J4" end="660" vehsPerHour="23.38888798689369"/>
  <flow id="JF41271" begin="600" fromJunction="J3" toJunction="J0" end="660" vehsPerHour="117.38996820665048"/>
  <flow id="JF41272" begin="600" fromJunction="J3" toJunction="J2" end="660" vehsPerHour="18.65193637985971"/>
  <flow id="JF41273" begin="600" fromJunction="J3" toJunction="J4" end="660" vehsPerHour="30.698123862239406"/>
  <flow id="JF41274" begin="600" fromJunction="J4" toJunction="J0" end="660" vehsPerHour="36.421830487436395"/>
  <flow id="JF41275" begin="660" fromJunction="J0" toJunction="J3" end="720" vehsPerHour="2.1366629485430733"/>
  <flow id="JF41276" begin="660" fromJunction="J0" toJunction="J4" end="720" vehsPerHour="122.13774459912501"/>
  <flow id="JF41277" begin="660" fromJunction="J2" toJunction="J0" end="720" vehsPerHour="53.68510298385465"/>
  <flow id="JF41278" begin="660" fromJunction="J2" toJunction="J3" end="720" vehsPerHour="129.20770437242984"/>
  <flow id="JF41279" begin="660" fromJunction="J3" toJunction="J4" end="720" vehsPerHour="110.96673032186348"/>
  <flow id="JF41280" begin="660" fromJunction="J4" toJunction="J0" end="720" vehsPerHour="6.000407580511178"/>
  <flow id="JF41281" begin="660" fromJunction="J4" toJunction="J2" end="720" vehsPerHour="64.66620660673138"/>
  <flow id="JF41282" begin="660" fromJunction="J4" toJunction="J3" end="720" vehsPerHour="136.23654075792365"/>
  <flow id="JF41283" begin="720" fromJunction="J0" toJunction="J2" end="780" vehsPerHour="91.18034690437663"/>
  <flow id="JF41284" begin="720" fromJunction="J2" toJunction="J0" end="780" vehsPerHour="30.26942840510262"/>
  <flow id="JF41285" begin="720" fromJunction="J2" toJunction="J3" end="780" vehsPerHour="68.03996399865417"/>
  <flow id="JF41286" begin="720" fromJunction="J2" toJunction="J4" end="780" vehsPerHour="4.691237932285213"/>
  <flow id="JF41287" begin="720" fromJunction="J3" toJunction="J0" end="780" vehsPerHour="60.72032792559071"/>
  <flow id="JF41288" begin="720" fromJunction="J4" toJunction="J0" end="780" vehsPerHour="59.81741965760673"/>
  <flow id="JF41289" begin="720" fromJunction="J4" toJunction="J2" end="780" vehsPerHour="76.94365522208824"/>
  <flow id="JF41290" begin="720" fromJunction="J4" toJunction="J3" end="780" vehsPerHour="24.05514224268873"/>
  <flow id="JF41291" begin="780" fromJunction="J0" toJunction="J2" end="840" vehsPerHour="59.37491063182274"/>
  <flow id="JF41292" begin="780" fromJunction="J0" toJunction="J3" end="840" vehsPerHour="90.67601785343845"/>
  <flow id="JF41293" begin="780" fromJunction="J0" toJunction="J4" end="840" vehsPerHour="20.887892956259503"/>
  <flow id="JF41294" begin="780" fromJunction="J2" toJunction="J3" end="840" vehsPerHour="26.393284473366972"/>
  <flow id="JF41295" begin="780" fromJunction="J3" toJunction="J0" end="840" vehsPerHour="34.00819396718833"/>
  <flow id="JF41296" begin="780" fromJunction="J3" toJunction="J2" end="840" vehsPerHour="6.383703063708796"/>
  <flow id="JF41297" begin="780" fromJunction="J4" toJunction="J0" end="840" vehsPerHour="77.84748980621728"/>
  <flow id="JF41298" begin="780" fromJunction="J4" toJunction="J2" end="840" vehsPerHour="23.091413170591416"/>
  <flow id="JF41299" begin="840" fromJunction="J0" toJunction="J3" end="900" vehsPerHour="80.6603179624773"/>
  <flow id="JF41300" begin="840" fromJunction="J0" toJunction="J4" end="900" vehsPerHour="51.91211067219614"/>
  <flow id="JF41301" begin="840" fromJunction="J2" toJunction="J0" end="900" vehsPerHour="124.33026091998813"/>
  <flow id="JF41302" begin="840" fromJunction="J2" toJunction="J3" end="900" vehsPerHour="95.68930506633212"/>
  <flow id="JF41303" begin="840" fromJunction="J2" toJunction="J4" end="900" vehsPerHour="19.678060415147982"/>
  <flow id="JF41304" begin="840" fromJunction="J3" toJunction="J0" end="900" vehsPerHour="82.6950875380088"/>
  <flow id="JF41305" begin="840" fromJunction="J3" toJunction="J2" end="900" vehsPerHour="12.457407226254501"/>
  <flow id="JF41306" begin="840" fromJunction="J4" toJunction="J0" end="900" vehsPerHour="75.4812390691677"/>
  <flow id="JF41307" begin="840" fromJunction="J4" toJunction="J3" end="900" vehsPerHour="21.013259840652704"/>
  <flow id="JF41308" begin="900" fromJunction="J0" toJunction="J2" end="960" vehsPerHour="122.27542201802147"/>
  <flow id="JF41309" begin="900" fromJunction="J2" toJunction="J3" end="960" vehsPerHour="26.59952859515562"/>
  <flow id="JF41310" begin="900" fromJunction="J2" toJunction="J4" end="960" vehsPerHour="38.380311967393176"/>
  <flow id="JF41311" begin="900" fromJunction="J3" toJunction="J2" end="960" vehsPerHour="132.3855140908631"/>
  <flow id="JF41312" begin="900" fromJunction="J3" toJunction="J4" end="960" vehsPerHour="97.41760502541312"/>
  <flow id="JF41313" begin="900" fromJunction="J4" toJunction="J2" end="960" vehsPerHour="29.18284831042248"/>
  <flow id="JF41314" begin="900" fromJunction="J4" toJunction="J3" end="960" vehsPerHour="53.2268805483383"/>
  <flow id="JF41315" begin="960" fromJunction="J0" toJunction="J2" end="1020" vehsPerHour="60.57639982307245"/>
  <flow id="JF41316" begin="960" fromJunction="J2" toJunction="J0" end="1020" vehsPerHour="70.56682046945731"/>
  <flow id="JF41317" begin="960" fromJunction="J2" toJunction="J4" end="1020" vehsPerHour="12.893498592881848"/>
  <flow id="JF41318" begin="960" fromJunction="J3" toJunction="J0" end="1020" vehsPerHour="68.15096470786158"/>
  <flow id="JF41319" begin="960" fromJunction="J3" toJunction="J2" end="1020" vehsPerHour="27.26749439500737"/>
  <flow id="JF41320" begin="960" fromJunction="J3" toJunction="J4" end="1020" vehsPerHour="61.14550178736896"/>
  <flow id="JF41321" begin="960" fromJunction="J4" toJunction="J0" end="1020" vehsPerHour="26.791185769188296"/>
  <flow id="JF41322" begin="960" fromJunction="J4" toJunction="J3" end="1020" vehsPerHour="52.54770502724742"/>
  <flow id="JF41323" begin="1020" fromJunction="J0" toJunction="J3" end="1080" vehsPerHour="23.343342842160546"/>
  <flow id="JF41324" begin="1020" fromJunction="J0" toJunction="J4" end="1080" vehsPerHour="67.89480022753652"/>
  <flow id="JF41325" begin="1020" fromJunction="J2" toJunction="J0" end="1080" vehsPerHour="19.079095238129526"/>
  <flow id="JF41326" begin="1020" fromJunction="J2" toJunction="J4" end="1080" vehsPerHour="16.21534610027571"/>
  <flow id="JF41327" begin="1020" fromJunction="J3" toJunction="J2" end="1080" vehsPerHour="45.17454771858528"/>
  <flow id="JF41328" begin="1020" fromJunction="J3" toJunction="J4" end="1080" vehsPerHour="106.29238506708917"/>
  <flow id="JF41329" begin="1020" fromJunction="J4" toJunction="J0" end="1080" vehsPerHour="12.466510597508417"/>
  <flow id="JF41330" begin="1020" fromJunction="J4" toJunction="J3" end="1080" vehsPerHour="54.118166986161775"/>
  <flow id="JF41331" begin="1080" fromJunction="J0" toJunction="J2" end="1140" vehsPerHour="22.92427694080467"/>
  <flow id="JF41332" begin="1080" fromJunction="J0" toJunction="J4" end="1140" vehsPerHour="101.10740007245394"/>
  <flow id="JF41333" begin="1080" fromJunction="J2" toJunction="J4" end="1140" vehsPerHour="36.32313351907651"/>
  <flow id="JF41334" begin="1080" fromJunction="J3" toJunction="J0" end="1140" vehsPerHour="114.71177539101683"/>
  <flow id="JF41335" begin="1080" fromJunction="J3" toJunction="J2" end="1140" vehsPerHour="101.82588461560665"/>
  <flow id="JF41336" begin="1080" fromJunction="J4" toJunction="J0" end="1140" vehsPerHour="34.29748531190848"/>
  <flow id="JF41337" begin="1080" fromJunction="J4" toJunction="J2" end="1140" vehsPerHour="92.52897934485654"/>
  <flow id="JF41338" begin="1080" fromJunction="J4" toJunction="J3" end="1140" vehsPerHour="128.48806196660905"/>
  <flow id="JF41339" begin="1140" fromJunction="J0" toJunction="J2" end="1200" vehsPerHour="40.859802630694915"/>
  <flow id="JF41340" begin="1140" fromJunction="J0" toJunction="J3" end="1200" vehsPerHour="8.599292199616317"/>
  <flow id="JF41341" begin="1140" fromJunction="J2" toJunction="J4" end="1200" vehsPerHour="24.160303320895267"/>
  <flow id="JF41342" begin="1140" fromJunction="J3" toJunction="J0" end="1200" vehsPerHour="38.92559254273808"/>
  <flow id="JF41343" begin="1140" fromJunction="J3" toJunction="J4" end="1200" vehsPerHour="2.486821184771115"/>
  <flow id="JF41344" begin="1140" fromJunction="J4" toJunction="J2" end="1200" vehsPerHour="126.61022399247204"/>
  <flow id="JF41345" begin="1140" fromJunction="J4" toJunction="J3" end="1200" vehsPerHour="121.99348858620408"/>
  <flow id="JF41346" begin="1200" fromJunction="J0" toJunction="J2" end="1260" vehsPerHour="121.97348334429707"/>
  <flow id="JF41347" begin="1200" fromJunction="J0" toJunction="J3" end="1260" vehsPerHour="0.994644816116809"/>
  <flow id="JF41348" begin="1200" fromJunction="J0" toJunction="J4" end="1260" vehsPerHour="32.562234549929926"/>
  <flow id="JF41349" begin="1200" fromJunction="J2" toJunction="J0" end="1260" vehsPerHour="71.27773023665985"/>
  <flow id="JF41350" begin="1200" fromJunction="J2" toJunction="J3" end="1260" vehsPerHour="115.5744249726347"/>
  <flow id="JF41351" begin="1200" fromJunction="J2" toJunction="J4" end="1260" vehsPerHour="36.69761778431058"/>
  <flow id="JF41352" begin="1200" fromJunction="J3" toJunction="J0" end="1260" vehsPerHour="88.22334440148371"/>
  <flow id="JF41353" begin="1200" fromJunction="J3" toJunction="J2" end="1260" vehsPerHour="87.53854202469726"/>
  <flow id="JF41354" begin="1200" fromJunction="J3" toJunction="J4" end="1260" vehsPerHour="8.43198256292073"/>
  <flow id="JF41355" begin="1200" fromJunction="J4" toJunction="J0" end="1260" vehsPerHour="56.12021133771388"/>
  <flow id="JF41356" begin="1200" fromJunction="J4" toJunction="J2" end="1260" vehsPerHour="0.29480685195663386"/>
  <flow id="JF41357" begin="1200" fromJunction="J4" toJunction="J3" end="1260" vehsPerHour="50.06827250247337"/>
  <flow id="JF41358" begin="1260" fromJunction="J0" toJunction="J3" end="1320" vehsPerHour="101.7052006347322"/>
  <flow id="JF41359" begin="1260" fromJunction="J2" toJunction="J3" end="1320" vehsPerHour="81.90664190873487"/>
  <flow id="JF41360" begin="1260" fromJunction="J2" toJunction="J4" end="1320" vehsPerHour="62.11391269273689"/>
  <flow id="JF41361" begin="1260" fromJunction="J3" toJunction="J0" end="1320" vehsPerHour="14.675714309124766"/>
  <flow id="JF41362" begin="1260" fromJunction="J3" toJunction="J2" end="1320" vehsPerHour="102.06332587838077"/>
  <flow id="JF41363" begin="1260" fromJunction="J3" toJunction="J4" end="1320" vehsPerHour="27.81851055890327"/>
  <flow id="JF41364" begin="1260" fromJunction="J4" toJunction="J0" end="1320" vehsPerHour="87.23174659304264"/>
  <flow id="JF41365" begin="1260" fromJunction="J4" toJunction="J2" end="1320" vehsPerHour="94.66321110031268"/>
  <flow id="JF41366" begin="1260" fromJunction="J4" toJunction="J3" end="1320" vehsPerHour="58.664664578629974"/>
  <flow id="JF41367" begin="1320" fromJunction="J0" toJunction="J3" end="1380" vehsPerHour="93.58220626396331"/>
  <flow id="JF41368" begin="1320" fromJunction="J2" toJunction="J0" end="1380" vehsPerHour="92.27881257630693"/>
  <flow id="JF41369" begin="1320" fromJunction="J2" toJunction="J3" end="1380" vehsPerHour="113.30810113089858"/>
  <flow id="JF41370" begin="1320" fromJunction="J3" toJunction="J0" end="1380" vehsPerHour="44.17989935220142"/>
  <flow id="JF41371" begin="1320" fromJunction="J4" toJunction="J2" end="1380" vehsPerHour="19.38479867773541"/>
  <flow id="JF41372" begin="1320" fromJunction="J4" toJunction="J3" end="1380" vehsPerHour="89.10050223639301"/>
  <flow id="JF41373" begin="1380" fromJunction="J0" toJunction="J3" end="1440" vehsPerHour="110.73982877375175"/>
  <flow id="JF41374" begin="1380" fromJunction="J0" toJunction="J4" end="1440" vehsPerHour="111.94086161786764"/>
  <flow id="JF41375" begin="1380" fromJunction="J2" toJunction="J0" end="1440" vehsPerHour="51.48302600377976"/>
  <flow id="JF41376" begin="1380" fromJunction="J3" toJunction="J0" end="1440" vehsPerHour="111.60164576055472"/>
  <flow id="JF41377" begin="1380" fromJunction="J3" toJunction="J4" end="1440" vehsPerHour="59.73406587746294"/>
  <flow id="JF41378" begin="1380" fromJunction="J4" toJunction="J2" end="1440" vehsPerHour="41.462123427890646"/>
  <flow id="JF41379" begin="1380" fromJunction="J4" toJunction="J3" end="1440" vehsPerHour="8.600036586961515"/>
  <flow id="JF41380" begin="1440" fromJunction="J0" toJunction="J2" end="1500" vehsPerHour="23.370385106604573"/>
  <flow id="JF41381" begin="1440" fromJunction="J0" toJunction="J3" end="1500" vehsPerHour="104.3591755987872"/>
  <flow id="JF41382" begin="1440" fromJunction="J0" toJunction="J4" end="1500" vehsPerHour="22.748526743257305"/>
  <flow id="JF41383" begin="1440" fromJunction="J2" toJunction="J3" end="1500" vehsPerHour="66.1191773854176"/>
  <flow id="JF41384" begin="1440" fromJunction="J3" toJunction="J0" end="1500" vehsPerHour="15.340459122956386"/>
  <flow id="JF41385" begin="1440" fromJunction="J3" toJunction="J2" end="1500" vehsPerHour="112.52336875465349"/>
  <flow id="JF41386" begin="1440" fromJunction="J3" toJunction="J4" end="1500" vehsPerHour="80.34357222775456"/>
  <flow id="JF41387" begin="1440" fromJunction="J4" toJunction="J0" end="1500" vehsPerHour="8.780814488833038"/>
  <flow id="JF41388" begin="1440" fromJunction="J4" toJunction="J2" end="1500" vehsPerHour="112.97454515473203"/>
  <flow id="JF41389" begin="1440" fromJunction="J4" toJunction="J3" end="1500" vehsPerHour="26.802446995523326"/>
  <flow id="JF41390" begin="1500" fromJunction="J0" toJunction="J2" end="1560" vehsPerHour="46.477715586985255"/>
  <flow id="JF41391" begin="1500" fromJunction="J0" toJunction="J4" end="1560" vehsPerHour="136.74490134928223"/>
  <flow id="JF41392" begin="1500" fromJunction="J2" toJunction="J0" end="1560" vehsPerHour="78.78819371750845"/>
  <flow id="JF41393" begin="1500" fromJunction="J2" toJunction="J3" end="1560" vehsPerHour="136.90902256587003"/>
  <flow id="JF41394" begin="1500" fromJunction="J3" toJunction="J0" end="1560" vehsPerHour="131.85510571612969"/>
  <flow id="JF41395" begin="1500" fromJunction="J3" toJunction="J2" end="1560" vehsPerHour="117.55958294479223"/>
  <flow id="JF41396" begin="1500" fromJunction="J3" toJunction="J4" end="1560" vehsPerHour="57.73100919973715"/>
  <flow id="JF41397" begin="1560" fromJunction="J0" toJunction="J2" end="1620" vehsPerHour="12.090351010676958"/>
  <flow id="JF41398" begin="1560" fromJunction="J0" toJunction="J3" end="1620" vehsPerHour="35.60702788713142"/>
  <flow id="JF41399" begin="1560" fromJunction="J0" toJunction="J4" end="1620" vehsPerHour="12.653982169631007"/>
  <flow id="JF41400" begin="1560" fromJunction="J2" toJunction="J0" end="1620" vehsPerHour="113.86968340847736"/>
  <flow id="JF41401" begin="1560" fromJunction="J2" toJunction="J4" end="1620" vehsPerHour="99.14271353087544"/>
  <flow id="JF41402" begin="1560" fromJunction="J3" toJunction="J0" end="1620" vehsPerHour="55.749167200662136"/>
  <flow id="JF41403" begin="1560" fromJunction="J3" toJunction="J2" end="1620" vehsPerHour="47.151098042032736"/>
  <flow id="JF41404" begin="1560" fromJunction="J3" toJunction="J4" end="1620" vehsPerHour="117.67678422886212"/>
  <flow id="JF41405" begin="1560" fromJunction="J4" toJunction="J0" end="1620" vehsPerHour="14.905016624426509"/>
  <flow id="JF41406" begin="1560" fromJunction="J4" toJunction="J3" end="1620" vehsPerHour="25.10176095596209"/>
  <flow id="JF41407" begin="1620" fromJunction="J0" toJunction="J2" end="1680" vehsPerHour="1.573469565497218"/>
  <flow id="JF41408" begin="1620" fromJunction="J0" toJunction="J3" end="1680" vehsPerHour="48.069888153134"/>
  <flow id="JF41409" begin="1620" fromJunction="J3" toJunction="J2" end="1680" vehsPerHour="46.31387200684595"/>
  <flow id="JF41410" begin="1620" fromJunction="J3" toJunction="J4" end="1680" vehsPerHour="89.37574210508065"/>
  <flow id="JF41411" begin="1620" fromJunction="J4" toJunction="J0" end="1680" vehsPerHour="113.27327048613991"/>
  <flow id="JF41412" begin="1620" fromJunction="J4" toJunction="J2" end="1680" vehsPerHour="39.35030406926608"/>
  <flow id="JF41413" begin="1620" fromJunction="J4" toJunction="J3" end="1680" vehsPerHour="5.555849664201569"/>
  <flow id="JF41414" begin="1680" fromJunction="J0" toJunction="J2" end="1740" vehsPerHour="25.368923931183424"/>
  <flow id="JF41415" begin="1680" fromJunction="J0" toJunction="J4" end="1740" vehsPerHour="70.5488290948599"/>
  <flow id="JF41416" begin="1680" fromJunction="J2" toJunction="J0" end="1740" vehsPerHour="99.12706884161524"/>
  <flow id="JF41417" begin="1680" fromJunction="J2" toJunction="J4" end="1740" vehsPerHour="34.0911675385744"/>
  <flow id="JF41418" begin="1680" fromJunction="J3" toJunction="J0" end="1740" vehsPerHour="110.26597428384719"/>
  <flow id="JF41419" begin="1680" fromJunction="J3" toJunction="J4" end="1740" vehsPerHour="124.99268115739027"/>
  <flow id="JF41420" begin="1680" fromJunction="J4" toJunction="J0" end="1740" vehsPerHour="98.82357292302349"/>
  <flow id="JF41421" begin="1680" fromJunction="J4" toJunction="J2" end="1740" vehsPerHour="11.869581317819486"/>
  <flow id="JF41422" begin="1680" fromJunction="J4" toJunction="J3" end="1740" vehsPerHour="99.10196227969584"/>
  <flow id="JF41423" begin="1740" fromJunction="J0" toJunction="J2" end="1800" vehsPerHour="133.3651591757889"/>
  <flow id="JF41424" begin="1740" fromJunction="J0" toJunction="J3" end="1800" vehsPerHour="105.67003025964553"/>
  <flow id="JF41425" begin="1740" fromJunction="J2" toJunction="J0" end="1800" vehsPerHour="115.83331128951954"/>
  <flow id="JF41426" begin="1740" fromJunction="J2" toJunction="J3" end="1800" vehsPerHour="80.86574659393499"/>
  <flow id="JF41427" begin="1740" fromJunction="J2" toJunction="J4" end="1800" vehsPerHour="3.983717387446261"/>
  <flow id="JF41428" begin="1740" fromJunction="J3" toJunction="J0" end="1800" vehsPerHour="101.3820751684322"/>
  <flow id="JF41429" begin="1740" fromJunction="J3" toJunction="J2" end="1800" vehsPerHour="65.77384760745453"/>
  <flow id="JF41430" begin="1740" fromJunction="J3" toJunction="J4" end="1800" vehsPerHour="74.16629535842172"/>
  <flow id="JF41431" begin="1740" fromJunction="J4" toJunction="J0" end="1800" vehsPerHour="112.873315131395"/>
  <flow id="JF41432" begin="1800" fromJunction="J0" toJunction="J2" end="1860" vehsPerHour="36.070153264217424"/>
  <flow id="JF41433" begin="1800" fromJunction="J0" toJunction="J3" end="1860" vehsPerHour="57.15946867444745"/>
  <flow id="JF41434" begin="1800" fromJunction="J0" toJunction="J4" end="1860" vehsPerHour="66.705835723427"/>
  <flow id="JF41435" begin="1800" fromJunction="J2" toJunction="J0" end="1860" vehsPerHour="3.4879260237376895"/>
  <flow id="JF41436" begin="1800" fromJunction="J2" toJunction="J3" end="1860" vehsPerHour="28.626762293675764"/>
  <flow id="JF41437" begin="1800" fromJunction="J2" toJunction="J4" end="1860" vehsPerHour="36.038069907698215"/>
  <flow id="JF41438" begin="1800" fromJunction="J3" toJunction="J0" end="1860" vehsPerHour="62.66644380409356"/>