<?xml version="1.0" encoding="UTF-8"?>
<routes xmlns:xsi="http://www.w3.org/2001/XMLSchema-instance" xsi:noNamespaceSchemaLocation="http://sumo.dlr.de/xsd/routes_file.xsd">
  <flow id="JF42719" begin="0" fromJunction="J0" toJunction="J2" end="60" vehsPerHour="133.17534110503118"/>
  <flow id="JF42720" begin="0" fromJunction="J2" toJunction="J0" end="60" vehsPerHour="67.88386733437034"/>
  <flow id="JF42721" begin="0" fromJunction="J2" toJunction="J3" end="60" vehsPerHour="2.337447165945809"/>
  <flow id="JF42722" begin="0" fromJunction="J2" toJunction="J4" end="60" vehsPerHour="111.828793121438"/>
  <flow id="JF42723" begin="0" fromJunction="J3" toJunction="J0" end="60" vehsPerHour="117.28671274373093"/>
  <flow id="JF42724" begin="0" fromJunction="J4" toJunction="J0" end="60" vehsPerHour="90.3987748076294"/>
  <flow id="JF42725" begin="0" fromJunction="J4" toJunction="J3" end="60" vehsPerHour="62.12979157428033"/>
  <flow id="JF42726" begin="60" fromJunction="J0" toJunction="J2" end="120" vehsPerHour="98.30320179726851"/>
  <flow id="JF42727" begin="60" fromJunction="J0" toJunction="J3" end="120" vehsPerHour="58.61450758207689"/>
  <flow id="JF42728" begin="60" fromJunction="J2" toJunction="J0" end="120" vehsPerHour="132.2954675132514"/>
  <flow id="JF42729" begin="60" fromJunction="J3" toJunction="J0" end="120" vehsPerHour="58.97467397883115"/>
  <flow id="JF42730" begin="60" fromJunction="J4" toJunction="J0" end="120" vehsPerHour="98.9975232213115"/>
  <flow id="JF42731" begin="60" fromJunction="J4" toJunction="J3" end="120" vehsPerHour="95.72330307472255"/>
  <flow id="JF42732" begin="120" fromJunction="J0" toJunction="J2" end="180" vehsPerHour="71.64897185856877"/>
  <flow id="JF42733" begin="120" fromJunction="J0" toJunction="J3" end="180" vehsPerHour="110.01726913217308"/>
  <flow id="JF42734" begin="120" fromJunction="J2" toJunction="J0" end="180" vehsPerHour="131.95652510597412"/>
  <flow id="JF42735" begin="120" fromJunction="J2" toJunction="J3" end="180" vehsPerHour="32.01586831638475"/>
  <flow id="JF42736" begin="120" fromJunction="J2" toJunction="J4" end="180" vehsPerHour="62.30948410659806"/>
  <flow id="JF42737" begin="120" fromJunction="J3" toJunction="J0" end="180" vehsPerHour="12.148289511957255"/>
  <flow id="JF42738" begin="120" fromJunction="J3" toJunction="J2" end="180" vehsPerHour="45.00483764438161"/>
  <flow id="JF42739" begin="120" fromJunction="J4" toJunction="J0" end="180" vehsPerHour="42.57246488271783"/>
  <flow id="JF42740" begin="120" fromJunction="J4" toJunction="J2" end="180" vehsPerHour="72.64216352118221"/>
  <flow id="JF42741" begin="120" fromJunction="J4" toJunction="J3" end="180" vehsPerHour="107.53832249795344"/>
  <flow id="JF42742" begin="180" fromJunction="J0" toJunction="J2" end="240" vehsPerHour="126.85541627232328"/>
  <flow id="JF42743" begin="180" fromJunction="J0" toJunction="J4" end="240" vehsPerHour="103.74547833437784"/>
  <flow id="JF42744" begin="180" fromJunction="J2" toJunction="J0" end="240" vehsPerHour="116.95954498478318"/>
  <flow id="JF42745" begin="180" fromJunction="J2" toJunction="J3" end="240" vehsPerHour="12.881510375683265"/>
  <flow id="JF42746" begin="180" fromJunction="J3" toJunction="J0" end="240" vehsPerHour="130.25094432470723"/>
  <flow id="JF42747" begin="180" fromJunction="J3" toJunction="J2" end="240" vehsPerHour="45.336664356806324"/>
  <flow id="JF42748" begin="180" fromJunction="J3" toJunction="J4" end="240" vehsPerHour="37.06225540102091"/>
  <flow id="JF42749" begin="240" fromJunction="J0" toJunction="J2" end="300" vehsPerHour="80.92638622120597"/>
  <flow id="JF42750" begin="240" fromJunction="J2" toJunction="J0" end="300" vehsPerHour="56.6397503630488"/>
  <flow id="JF42751" begin="240" fromJunction="J2" toJunction="J3" end="300" vehsPerHour="116.07549050416888"/>
  <flow id="JF42752" begin="240" fromJunction="J2" toJunction="J4" end="300" vehsPerHour="125.9230003698507"/>
  <flow id="JF42753" begin="240" fromJunction="J3" toJunction="J0" end="300" vehsPerHour="14.921988718044961"/>
  <flow id="JF42754" begin="240" fromJunction="J3" toJunction="J2" end="300" vehsPerHour="133.28065632013053"/>
  <flow id="JF42755" begin="240" fromJunction="J3" toJunction="J4" end="300" vehsPerHour="102.6312063545559"/>
  <flow id="JF42756" begin="240" fromJunction="J4" toJunction="J2" end="300" vehsPerHour="41.761496510603195"/>
  <flow id="JF42757" begin="240" fromJunction="J4" toJunction="J3" end="300" vehsPerHour="62.849187525873745"/>
  <flow id="JF42758" begin="300" fromJunction="J0" toJunction="J2" end="360" vehsPerHour="64.12517517862742"/>
  <flow id="JF42759" begin="300" fromJunction="J0" toJunction="J3" end="360" vehsPerHour="31.264635651837725"/>
  <flow id="JF42760" begin="300" fromJunction="J0" toJunction="J4" end="360" vehsPerHour="100.5184942987401"/>
  <flow id="JF42761" begin="300" fromJunction="J2" toJunction="J0" end="360" vehsPerHour="77.4772851275455"/>
  <flow id="JF42762" begin="300" fromJunction="J2" toJunction="J3" end="360" vehsPerHour="4.999659612164533"/>
  <flow id="JF42763" begin="300" fromJunction="J2" toJunction="J4" end="360" vehsPerHour="126.01449649340081"/>
  <flow id="JF42764" begin="300" fromJunction="J3" toJunction="J4" end="360" vehsPerHour="92.82836169098614"/>
  <flow id="JF42765" begin="300" fromJunction="J4" toJunction="J3" end="360" vehsPerHour="103.04557876711785"/>
  <flow id="JF42766" begin="360" fromJunction="J0" toJunction="J2" end="420" vehsPerHour="77.05171921206791"/>
  <flow id="JF42767" begin="360" fromJunction="J0" toJunction="J3" end="420" vehsPerHour="131.0355368446704"/>
  <flow id="JF42768" begin="360" fromJunction="J0" toJunction="J4" end="420" vehsPerHour="117.06924183247358"/>
  <flow id="JF42769" begin="360" fromJunction="J2" toJunction="J0" end="420" vehsPerHour="108.44045216582612"/>
  <flow id="JF42770" begin="360" fromJunction="J3" toJunction="J0" end="420" vehsPerHour="128.31042073602478"/>
  <flow id="JF42771" begin="360" fromJunction="J3" toJunction="J4" end="420" vehsPerHour="47.2722087187368"/>
  <flow id="JF42772" begin="360" fromJunction="J4" toJunction="J0" end="420" vehsPerHour="65.5954561174734"/>
  <flow id="JF42773" begin="360" fromJunction="J4" toJunction="J2" end="420" vehsPerHour="114.67752228071636"/>
  <flow id="JF42774" begin="360" fromJunction="J4" toJunction="J3" end="420" vehsPerHour="65.22831982282021"/>
  <flow id="JF42775" begin="420" fromJunction="J0" toJunction="J3" end="480" vehsPerHour="28.153281661635827"/>
  <flow id="JF42776" begin="420" fromJunction="J2" toJunction="J0" end="480" vehsPerHour="97.6300664264802"/>
  <flow id="JF42777" begin="420" fromJunction="J2" toJunction="J3" end="480" vehsPerHour="76.15372671869191"/>
  <flow id="JF42778" begin="420" fromJunction="J2" toJunction="J4" end="480" vehsPerHour="32.33908151172671"/>
  <flow id="JF42779" begin="420" fromJunction="J3" toJunction="J0" end="480" vehsPerHour="96.46192008423209"/>
  <flow id="JF42780" begin="420" fromJunction="J3" toJunction="J4" end="480" vehsPerHour="122.4309495949367"/>
  <flow id="JF42781" begin="420" fromJunction="J4" toJunction="J2" end="480" vehsPerHour="105.05861656486813"/>
  <flow id="JF42782" begin="420" fromJunction="J4" toJunction="J3" end="480" vehsPerHour="55.45173970139544"/>
  <flow id="JF42783" begin="480" fromJunction="J0" toJunction="J4" end="540" vehsPerHour="123.32821890054586"/>
  <flow id="JF42784" begin="480" fromJunction="J2" toJunction="J3" end="540" vehsPerHour="111.19372964317259"/>
  <flow id="JF42785" begin="480" fromJunction="J3" toJunction="J0" end="540" vehsPerHour="130.965170194213"/>
  <flow id="JF42786" begin="480" fromJunction="J3" toJunction="J2" end="540" vehsPerHour="10.156179622743975"/>
  <flow id="JF42787" begin="480" fromJunction="J3" toJunction="J4" end="540" vehsPerHour="58.61160894437941"/>
  <flow id="JF42788" begin="480" fromJunction="J4" toJunction="J2" end="540" vehsPerHour="95.60697455357652"/>
  <flow id="JF42789" begin="480" fromJunction="J4" toJunction="J3" end="540" vehsPerHour="109.4810334091285"/>
  <flow id="JF42790" begin="540" fromJunction="J0" toJunction="J2" end="600" vehsPerHour="14.52969317552138"/>
  <flow id="JF42791" begin="540" fromJunction="J0" toJunction="J3" end="600" vehsPerHour="18.405352268913962"/>
  <flow id="JF42792" begin="540" fromJunction="J2" toJunction="J0" end="600" vehsPerHour="108.01202113633497"/>
  <flow id="JF42793" begin="540" fromJunction="J2" toJunction="J4" end="600" vehsPerHour="77.20405986346887"/>
  <flow id="JF42794" begin="540" fromJunction="J3" toJunction="J0" end="600" vehsPerHour="8.324977063517181"/>
  <flow id="JF42795" begin="540" fromJunction="J3" toJunction="J2" end="600" vehsPerHour="48.78168372620411"/>
  <flow id="JF42796" begin="540" fromJunction="J4" toJunction="J0" end="600" vehsPerHour="69.4665407868997"/>
  <flow id="JF42797" begin="540" fromJunction="J4" toJunction="J2" end="600" vehsPerHour="95.35455315288675"/>
  <flow id="JF42798" begin="600" fromJunction="J0" toJunction="J2" end="660" vehsPerHour="76.47860307409809"/>
  <flow id="JF42799" begin="600" fromJunction="J2" toJunction="J0" end="660" vehsPerHour="42.00094520575238"/>
  <flow id="JF42800" begin="600" fromJunction="J2" toJunction="J4" end="660" vehsPerHour="100.39524432051896"/>
  <flow id="JF42801" begin="600" fromJunction="J3" toJunction="J4" end="660" vehsPerHour="128.51247037077096"/>
  <flow id="JF42802" begin="600" fromJunction="J4" toJunction="J0" end="660" vehsPerHour="0.44360001513887853"/>
  <flow id="JF42803" begin="600" fromJunction="J4" toJunction="J2" end="660" vehsPerHour="5.734962200834483"/>
  <flow id="JF42804" begin="600" fromJunction="J4" toJunction="J3" end="660" vehsPerHour="120.21665120454678"/>
  <flow id="JF42805" begin="660" fromJunction="J0" toJunction="J2" end="720" vehsPerHour="56.69203609357489"/>
  <flow id="JF42806" begin="660" fromJunction="J0" toJunction="J3" end="720" vehsPerHour="16.264402881299837"/>
  <flow id="JF42807" begin="660" fromJunction="J2" toJunction="J0" end="720" vehsPerHour="98.10585107035288"/>
  <flow id="JF42808" begin="660" fromJunction="J2" toJunction="J3" end="720" vehsPerHour="48.2677296302225"/>
  <flow id="JF42809" begin="660" fromJunction="J2" toJunction="J4" end="720" vehsPerHour="59.02153161165594"/>
  <flow id="JF42810" begin="660" fromJunction="J3" toJunction="J2" end="720" vehsPerHour="112.68320637960143"/>
  <flow id="JF42811" begin="660" fromJunction="J3" toJunction="J4" end="720" vehsPerHour="134.80634433449117"/>
  <flow id="JF42812" begin="660" fromJunction="J4" toJunction="J0" end="720" vehsPerHour="10.56598458623578"/>
  <flow id="JF42813" begin="660" fromJunction="J4" toJunction="J2" end="720" vehsPerHour="61.089378265569195"/>
  <flow id="JF42814" begin="720" fromJunction="J0" toJunction="J2" end="780" vehsPerHour="117.09191893788142"/>
  <flow id="JF42815" begin="720" fromJunction="J0" toJunction="J3" end="780" vehsPerHour="87.64821715688296"/>
  <flow id="JF42816" begin="720" fromJunction="J0" toJunction="J4" end="780" vehsPerHour="28.756983797431953"/>
  <flow id="JF42817" begin="720" fromJunction="J2" toJunction="J3" end="780" vehsPerHour="1.330543947371702"/>
  <flow id="JF42818" begin="720" fromJunction="J3" toJunction="J0" end="780" vehsPerHour="1.3351885544983968"/>
  <flow id="JF42819" begin="720" fromJunction="J3" toJunction="J2" end="780" vehsPerHour="110.79255988566202"/>
  <flow id="JF42820" begin="720" fromJunction="J3" toJunction="J4" end="780" vehsPerHour="113.82970478376764"/>
  <flow id="JF42821" begin="720" fromJunction="J4" toJunction="J0" end="780" vehsPerHour="3.084509485222925"/>
  <flow id="JF42822" begin="720" fromJunction="J4" toJunction="J2" end="780" vehsPerHour="43.43885703488258"/>
  <flow id="JF42823" begin="720" fromJunction="J4" toJunction="J3" end="780" vehsPerHour="30.227111715590336"/>
  <flow id="JF42824" begin="780" fromJunction="J0" toJunction="J2" end="840" vehsPerHour="15.082567045457239"/>
  <flow id="JF42825" begin="780" fromJunction="J0" toJunction="J4" end="840" vehsPerHour="63.4102390500473"/>
  <flow id="JF42826" begin="780" fromJunction="J2" toJunction="J0" end="840" vehsPerHour="102.80780399120914"/>
  <flow id="JF42827" begin="780" fromJunction="J2" toJunction="J3" end="840" vehsPerHour="33.24480815397727"/>
  <flow id="JF42828" begin="780" fromJunction="J2" toJunction="J4" end="840" vehsPerHour="30.389078845415145"/>
  <flow id="JF42829" begin="780" fromJunction="J3" toJunction="J0" end="840" vehsPerHour="15.390380933576612"/>
  <flow id="JF42830" begin="780" fromJunction="J3" toJunction="J2" end="840" vehsPerHour="68.28040926689556"/>
  <flow id="JF42831" begin="780" fromJunction="J3" toJunction="J4" end="840" vehsPerHour="29.840168102367382"/>
  <flow id="JF42832" begin="780" fromJunction="J4" toJunction="J2" end="840" vehsPerHour="45.48971495744253"/>
  <flow id="JF42833" begin="780" fromJunction="J4" toJunction="J3" end="840" vehsPerHour="87.20226546189912"/>
  <flow id="JF42834" begin="840" fromJunction="J0" toJunction="J3" end="900" vehsPerHour="114.69664144819981"/>
  <flow id="JF42835" begin="840" fromJunction="J2" toJunction="J3" end="900" vehsPerHour="61.788563064446244"/>
  <flow id="JF42836" begin="840" fromJunction="J3" toJunction="J0" end="900" vehsPerHour="50.23309279550705"/>
  <flow id="JF42837" begin="840" fromJunction="J3" toJunction="J4" end="900" vehsPerHour="27.17232483259032"/>
  <flow id="JF42838" begin="840" fromJunction="J4" toJunction="J0" end="900" vehsPerHour="25.250561308440382"/>
  <flow id="JF42839" begin="840" fromJunction="J4" toJunction="J2" end="900" vehsPerHour="21.105652326328798"/>
  <flow id="JF42840" begin="840" fromJunction="J4" toJunction="J3" end="900" vehsPerHour="137.366149511123"/>
  <flow id="JF42841" begin="900" fromJunction="J0" toJunction="J4" end="960" vehsPerHour="62.09446246214265"/>
  <flow id="JF42842" begin="900" fromJunction="J2" toJunction="J0" end="960" vehsPerHour="83.35724306891434"/>
  <flow id="JF42843" begin="900" fromJunction="J2" toJunction="J3" end="960" vehsPerHour="16.630442849106842"/>
  <flow id="JF42844" begin="900" fromJunction="J2" toJunction="J4" end="960" vehsPerHour="124.6166045556648"/>
  <flow id="JF42845" begin="900" fromJunction="J3" toJunction="J0" end="960" vehsPerHour="47.58767645184327"/>
  <flow id="JF42846" begin="900" fromJunction="J3" toJunction="J2" end="960" vehsPerHour="3.9143630757890597"/>
  <flow id="JF42847" begin="900" fromJunction="J3" toJunction="J4" end="960" vehsPerHour="82.9357668808505"/>
  <flow id="JF42848" begin="900" fromJunction="J4" toJunction="J0" end="960" vehsPerHour="113.68266882673477"/>
  <flow id="JF42849" begin="900" fromJunction="J4" toJunction="J2" end="960" vehsPerHour="91.85007511719384"/>
  <flow id="JF42850" begin="900" fromJunction="J4" toJunction="J3" end="960" vehsPerHour="10.844479818564063"/>
  <flow id="JF42851" begin="960" fromJunction="J0" toJunction="J2" end="1020" vehsPerHour="137.33980746735605"/>
  <flow id="JF42852" begin="960" fromJunction="J0" toJunction="J3" end="1020" vehsPerHour="32.33999164070871"/>
  <flow id="JF42853" begin="960" fromJunction="J2" toJunction="J0" end="1020" vehsPerHour="15.033008091747506"/>
  <flow id="JF42854" begin="960" fromJunction="J2" toJunction="J4" end="1020" vehsPerHour="71.08434912969034"/>
  <flow id="JF42855" begin="960" fromJunction="J3" toJunction="J0" end="1020" vehsPerHour="80.12418883263982"/>
  <flow id="JF42856" begin="960" fromJunction="J4" toJunction="J2" end="1020" vehsPerHour="36.00703275557819"/>
  <flow id="JF42857" begin="960" fromJunction="J4" toJunction="J3" end="1020" vehsPerHour="108.05318258814339"/>
  <flow id="JF42858" begin="1020" fromJunction="J0" toJunction="J2" end="1080" vehsPerHour="74.84798909422798"/>
  <flow id="JF42859" begin="1020" fromJunction="J0" toJunction="J4" end="1080" vehsPerHour="71.32849690958314"/>
  <flow id="JF42860" begin="1020" fromJunction="J2" toJunction="J0" end="1080" vehsPerHour="62.46902700983629"/>
  <flow id="JF42861" begin="1020" fromJunction="J2" toJunction="J4" end="1080" vehsPerHour="24.890208921178374"/>
  <flow id="JF42862" begin="1020" fromJunction="J3" toJunction="J0" end="1080" vehsPerHour="83.06067014294801"/>
  <flow id="JF42863" begin="1020" fromJunction="J3" toJunction="J2" end="1080" vehsPerHour="6.569599044293124"/>
  <flow id="JF42864" begin="1020" fromJunction="J4" toJunction="J2" end="1080" vehsPerHour="24.229102396521615"/>
  <flow id="JF42865" begin="1080" fromJunction="J0" toJunction="J2" end="1140" vehsPerHour="6.664896485660668"/>
  <flow id="JF42866" begin="1080" fromJunction="J0" toJunction="J3" end="1140" vehsPerHour="29.920962698683617"/>
  <flow id="JF42867" begin="1080" fromJunction="J0" toJunction="J4" end="1140" vehsPerHour="100.64462465063332"/>
  <flow id="JF42868" begin="1080" fromJunction="J2" toJunction="J3" end="1140" vehsPerHour="4.421015037976915"/>
  <flow id="JF42869" begin="1080" fromJunction="J2" toJunction="J4" end="1140" vehsPerHour="83.02104072832539"/>
  <flow id="JF42870" begin="1080" fromJunction="J3" toJunction="J2" end="1140" vehsPerHour="80.66591952592049"/>
  <flow id="JF42871" begin="1080" fromJunction="J3" toJunction="J4" end="1140" vehsPerHour="18.672838072968105"/>
  <flow id="JF42872" begin="1140" fromJunction="J0" toJunction="J2" end="1200" vehsPerHour="61.807776683052786"/>
  <flow id="JF42873" begin="1140" fromJunction="J0" toJunction="J3" end="1200" vehsPerHour="58.325952574289865"/>
  <flow id="JF42874" begin="1140" fromJunction="J2" toJunction="J0" end="1200" vehsPerHour="131.98829011068239"/>
  <flow id="JF42875" begin="1140" fromJunction="J2" toJunction="J3" end="1200" vehsPerHour="29.227846534720694"/>
  <flow id="JF42876" begin="1140" fromJunction="J3" toJunction="J0" end="1200" vehsPerHour="108.96677766503954"/>
  <flow id="JF42877" begin="1140" fromJunction="J3" toJunction="J4" end="1200" vehsPerHour="18.784016860561614"/>
  <flow id="JF42878" begin="1140" fromJunction="J4" toJunction="J0" end="1200" vehsPerHour="115.7560622294383"/>
  <flow id="JF42879" begin="1140" fromJunction="J4" toJunction="J2" end="1200" vehsPerHour="20.96918489149408"/>
  <flow id="JF42880" begin="1140" fromJunction="J4" toJunction="J3" end="1200" vehsPerHour="122.25503656819484"/>
  <flow id="JF42881" begin="1200" fromJunction="J0" toJunction="J4" end="1260" vehsPerHour="13.411954595993189"/>
  <flow id="JF42882" begin="1200" fromJunction="J2" toJunction="J0" end="1260" vehsPerHour="86.25563771864427"/>
  <flow id="JF42883" begin="1200" fromJunction="J2" toJunction="J3" end="1260" vehsPerHour="13.28476909973494"/>
  <flow id="JF42884" begin="1200" fromJunction="J2" toJunction="J4" end="1260" vehsPerHour="20.388992209066586"/>
  <flow id="JF42885" begin="1200" fromJunction="J3" toJunction="J0" end="1260" vehsPerHour="100.22930977261522"/>
  <flow id="JF42886" begin="1200" fromJunction="J3" toJunction="J2" end="1260" vehsPerHour="70.23257446052767"/>
  <flow id="JF42887" begin="1200" fromJunction="J3" toJunction="J4" end="1260" vehsPerHour="106.1001317226396"/>
  <flow id="JF42888" begin="1200" fromJunction="J4" toJunction="J0" end="1260" vehsPerHour="19.71677540016255"/>
  <flow id="JF42889" begin="1260" fromJunction="J0" toJunction="J4" end="1320" vehsPerHour="112.30100251454878"/>
  <flow id="JF42890" begin="1260" fromJunction="J2" toJunction="J3" end="1320" vehsPerHour="91.70583804623139"/>
  <flow id="JF42891" begin="1260" fromJunction="J3" toJunction="J0" end="1320" vehsPerHour="24.300675519941922"/>
  <flow id="JF42892" begin="1260" fromJunction="J3" toJunction="J2" end="1320" vehsPerHour="92.0003553723654"/>
  <flow id="JF42893" begin="1260" fromJunction="J3" toJunction="J4" end="1320" vehsPerHour="100.4654439714287"/>
  <flow id="JF42894" begin="1260" fromJunction="J4" toJunction="J2" end="1320" vehsPerHour="69.86803340598956"/>
  <flow id="JF42895" begin="1320" fromJunction="J0" toJunction="J2" end="1380" vehsPerHour="125.80782301540576"/>
  <flow id="JF42896" begin="1320" fromJunction="J0" toJunction="J3" end="1380" vehsPerHour="84.16941265588942"/>
  <flow id="JF42897" begin="1320" fromJunction="J0" toJunction="J4" end="1380" vehsPerHour="105.57438461446112"/>
  <flow id="JF42898" begin="1320" fromJunction="J2" toJunction="J3" end="1380" vehsPerHour="11.890016055887191"/>
  <flow id="JF42899" begin="1320" fromJunction="J3" toJunction="J2" end="1380" vehsPerHour="2.8364209375012615"/>
  <flow id="JF42900" begin="1320" fromJunction="J3" toJunction="J4" end="1380" vehsPerHour="62.076038361358925"/>
  <flow id="JF42901" begin="1320" fromJunction="J4" toJunction="J0" end="1380" vehsPerHour="84.2581464770861"/>
  <flow id="JF42902" begin="1320" fromJunction="J4" toJunction="J2" end="1380" vehsPerHour="4.604516914465751"/>
  <flow id="JF42903" begin="1380" fromJunction="J2" toJunction="J3" end="1440" vehsPerHour="5.310291058767874"/>
  <flow id="JF42904" begin="1380" fromJunction="J2" toJunction="J4" end="1440" vehsPerHour="67.13200604574638"/>
  <flow id="JF42905" begin="1380" fromJunction="J3" toJunction="J0" end="1440" vehsPerHour="46.99395984984194"/>
  <flow id="JF42906" begin="1380" fromJunction="J3" toJunction="J2" end="1440" vehsPerHour="25.226759090023386"/>
  <flow id="JF42907" begin="1380" fromJunction="J3" toJunction="J4" end="1440" vehsPerHour="6.745228085267296"/>
  <flow id="JF42908" begin="1380" fromJunction="J4" toJunction="J0" end="1440" vehsPerHour="93.33313845794167"/>
  <flow id="JF42909" begin="1380" fromJunction="J4" toJunction="J2" end="1440" vehsPerHour="97.07552771601685"/>
  <flow id="JF42910" begin="1380" fromJunction="J4" toJunction="J3" end="1440" vehsPerHour="29.55144947765118"/>
  <flow id="JF42911" begin="1440" fromJunction="J0" toJunction="J2" end="1500" vehsPerHour="62.90623878230259"/>
  <flow id="JF42912" begin="1440" fromJunction="J0" toJunction="J3" end="1500" vehsPerHour="35.0085639925827"/>
  <flow id="JF42913" begin="1440" fromJunction="J0" toJunction="J4" end="1500" vehsPerHour="66.96087668496948"/>
  <flow id="JF42914" begin="1440" fromJunction="J2" toJunction="J0" end="1500" vehsPerHour="24.007053008110848"/>
  <flow id="JF42915" begin="1440" fromJunction="J2" toJunction="J3" end="1500" vehsPerHour="82.33511363242927"/>
  <flow id="JF42916" begin="1440" fromJunction="J2" toJunction="J4" end="1500" vehsPerHour="84.41873639273308"/>
  <flow id="JF42917" begin="1440" fromJunction="J3" toJunction="J0" end="1500" vehsPerHour="117.76508802607664"/>
  <flow id="JF42918" begin="1440" fromJunction="J3" toJunction="J2" end="1500" vehsPerHour="23.210479322525153"/>
  <flow id="JF42919" begin="1440" fromJunction="J3" toJunction="J4" end="1500" vehsPerHour="82.77546748639155"/>
  <flow id="JF42920" begin="1440" fromJunction="J4" toJunction="J3" end="1500" vehsPerHour="59.676679784943644"/>
  <flow id="JF42921" begin="1500" fromJunction="J0" toJunction="J4" end="1560" vehsPerHour="118.06373819445936"/>
  <flow id="JF42922" begin="1500" fromJunction="J2" toJunction="J0" end="1560" vehsPerHour="108.27027098236594"/>
  <flow id="JF42923" begin="1500" fromJunction="J2" toJunction="J3" end="1560" vehsPerHour="4.306759843150729"/>
  <flow id="JF42924" begin="1500" fromJunction="J3" toJunction="J0" end="1560" vehsPerHour="100.68725831229195"/>
  <flow id="JF42925" begin="1500" fromJunction="J3" toJunction="J2" end="1560" vehsPerHour="21.217848724225565"/>
  <flow id="JF42926" begin="1500" fromJunction="J3" toJunction="J4" end="1560" vehsPerHour="126.5582689779087"/>
  <flow id="JF42927" begin="1500" fromJunction="J4" toJunction="J2" end="1560" vehsPerHour="132.46226452282815"/>
  <flow id="JF42928" begin="1500" fromJunction="J4" toJunction="J3" end="1560" vehsPerHour="87.75758548462869"/>
  <flow id="JF42929" begin="1560" fromJunction="J0" toJunction="J2" end="1620" vehsPerHour="49.85372915067688"/>
  <flow id="JF42930" begin="1560" fromJunction="J0" toJunction="J3" end="1620" vehsPerHour="18.04807475637483"/>
  <flow id="JF42931" begin="1560" fromJunction="J2" toJunction="J0" end="1620" vehsPerHour="59.14237823039683"/>
  <flow id="JF42932" begin="1560" fromJunction="J2" toJunction="J4" end="1620" vehsPerHour="122.61349168011391"/>
  <flow id="JF42933" begin="1560" fromJunction="J3" toJunction="J2" end="1620" vehsPerHour="126.56461838690302"/>
  <flow id="JF42934" begin="1560" fromJunction="J3" toJunction="J4" end="1620" vehsPerHour="108.53956112729662"/>
  <flow id="JF42935" begin="1560" fromJunction="J4" toJunction="J0" end="1620" vehsPerHour="37.60286344118785"/>
  <flow id="JF42936" begin="1560" fromJunction="J4" toJunction="J2" end="1620" vehsPerHour="9.078862162906155"/>
  <flow id="JF42937" begin="1560" fromJunction="J4" toJunction="J3" end="1620" vehsPerHour="24.704070613378178"/>
  <flow id="JF42938" begin="1620" fromJunction="J0" toJunction="J2" end="1680" vehsPerHour="35.26192744074468"/>
  <flow id="JF42939" begin="1620" fromJunction="J0" toJunction="J4" end="1680" vehsPerHour="111.1139680448852"/>
  <flow id="JF42940" begin="1620" fromJunction="J2" toJunction="J0" end="1680" vehsPerHour="85.3376859324193"/>
  <flow id="JF42941" begin="1620" fromJunction="J2" toJunction="J3" end="1680" vehsPerHour="115.77908362238537"/>
  <flow id="JF42942" begin="1620" fromJunction="J2" toJunction="J4" end="1680" vehsPerHour="67.5368253460856"/>
  <flow id="JF42943" begin="1620" fromJunction="J3" toJunction="J0" end="1680" vehsPerHour="62.85524175497745"/>
  <flow id="JF42944" begin="1620" fromJunction="J3" toJunction="J2" end="1680" vehsPerHour="80.6666764826329"/>
  <flow id="JF42945" begin="1620" fromJunction="J3" toJunction="J4" end="1680" vehsPerHour="75.55672469937294"/>
  <flow id="JF42946" begin="1620" fromJunction="J4" toJunction="J2" end="1680" vehsPerHour="11.80390063395464"/>
  <flow id="JF42947" begin="1680" fromJunction="J0" toJunction="J2" end="1740" vehsPerHour="74.93093175626137"/>
  <flow id="JF42948" begin="1680" fromJunction="J0" toJunction="J3" end="1740" vehsPerHour="113.56210883240011"/>
  <flow id="JF42949" begin="1680" fromJunction="J0" toJunction="J4" end="1740" vehsPerHour="52.07296915086436"/>
  <flow id="JF42950" begin="1680" fromJunction="J2" toJunction="J0" end="1740" vehsPerHour="90.9790569535084"/>
  <flow id="JF42951" begin="1680" fromJunction="J2" toJunction="J4" end="1740" vehsPerHour="23.764964802129093"/>
  <flow id="JF42952" begin="1680" fromJunction="J3" toJunction="J0" end="1740" vehsPerHour="45.79933348108333"/>
  <flow id="JF42953" begin="1680" fromJunction="J3" toJunction="J2" end="1740" vehsPerHour="115.39527915292663"/>
  <flow id="JF42954" begin="1680" fromJunction="J4" toJunction="J0" end="1740" vehsPerHour="56.326641484355356"/>
  <flow id="JF42955" begin="1680" fromJunction="J4" toJunction="J2" end="1740" vehsPerHour="87.52652727139"/>
  <flow id="JF42956" begin="1680" fromJunction="J4" toJunction="J3" end="1740" vehsPerHour="63.16671607560681"/>
  <flow id="JF42957" begin="1740" fromJunction="J0" toJunction="J4" end="1800" vehsPerHour="118.74288818247209"/>
  <flow id="JF42958" begin="1740" fromJunction="J2" toJunction="J0" end="1800" vehsPerHour="57.97533935834998"/>
  <flow id="JF42959" begin="1740" fromJunction="J2" toJunction="J3" end="1800" vehsPerHour="23.037327133056422"/>
  <flow id="JF42960" begin="1740" fromJunction="J3" toJunction="J2" end="1800" vehsPerHour="29.86262122321648"/>
  <flow id="JF42961" begin="1740" fromJunction="J3" toJunction="J4" end="1800" vehsPerHour="15.00485202830739"/>
  <flow id="JF42962" begin="1740" fromJunction="J4" toJunction="J0" end="1800" vehsPerHour="20.362189600962726"/>
  <flow id="JF42963" begin="1740" fromJunction="J4" toJunction="J2" end="1800" vehsPerHour="82.83627721944006"/>
  <flow id="JF42964" begin="1800" fromJunction="J0" toJunction="J2" end="1860" vehsPerHour="71.84269827273044"/>
  <flow id="JF42965" begin="1800" fromJunction="J0" toJunction="J3" end="1860" vehsPerHour="57.397095823886644"/>
  <flow id="JF42966" begin="1800" fromJunction="J0" toJunction="J4" end="1860" vehsPerHour="97.78445593642665"/>
  <flow id="JF42967" begin="1800" fromJunction="J3" toJunction="J0" end="1860" vehsPerHour="84.66129054774774"/>
  <flow id="JF42968" begin="1800" fromJunction="J4" toJunction="J2" end="1860" vehsPerHour="17.205994786969438"/>
  <flow id="JF42969" begin="1800" fromJunction="J4" toJunction="J3" end="1860" vehsPerHour="32.85464095178724"/>
  <flow id="JF42970" begin="1860" fromJunction="J0" toJunction="J2" end="1920" vehsPerHour="133.9889792513551"/>
  <flow id="JF42971" begin="1860" fromJunction="J0" toJunction="J3" end="1920" vehsPerHour="119.76833714620675"/>
  <flow id="JF42972" begin="1860" fromJunction="J0" toJunction="J4" end="1920" vehsPerHour="118.02598192954005"/>
  <flow id="JF42973" begin="1860" fromJunction="J2" toJunction="J0" end="1920" vehsPerHour="82.19555654410381"/>
  <flow id="JF42974" begin="1860" fromJunction="J2" toJunction="J3" end="1920" vehsPerHour="16.359727962301356"/>
  <flow id="JF42975" begin="1860" fromJunction="J2" toJunction="J4" end="1920" vehsPerHour="96.17537195562417"/>
  <flow id="JF42976" begin="1860" fromJunction="J3" toJunction="J0" end="1920" vehsPerHour="130.71624170910005"/>
  <flow id="JF42977" begin="1860" fromJunction="J3" toJunction="J4" end="1920" vehsPerHour="61.122504394336836"/>
  <flow id="JF42978" begin="1860" fromJunction="J4" toJunction="J0" end="1920" vehsPerHour="107.81711228842924"/>
  <flow id="JF42979" begin="1860" fromJunction="J4" toJunction="J2" end="1920" vehsPerHour="39.02276509001309"/>
  <flow id="JF42980" begin="1920" fromJunction="J2" toJunction="J3" end="1980" vehsPerHour="96.61143302977837"/>
  <flow id="JF42981" begin="1920" fromJunction="J2" toJunction="J4" end="1980" vehsPerHour="14.539144430992774"/>
  <flow id="JF42982" begin="1920" fromJunction="J3" toJunction="J0" end="1980" vehsPerHour="82.68659702361782"/>
  <flow id="JF42983" begin="1920" fromJunction="J3" toJunction="J2" end="1980" vehsPerHour="34.193369156663366"/>