<?xml version="1.0" encoding="UTF-8"?>
<routes xmlns:xsi="http://www.w3.org/2001/XMLSchema-instance" xsi:noNamespaceSchemaLocation="http://sumo.dlr.de/xsd/routes_file.xsd">
  <flow id="JF47385" begin="0" fromJunction="J0" toJunction="J2" end="60" vehsPerHour="19.732951253432397"/>
  <flow id="JF47386" begin="0" fromJunction="J0" toJunction="J4" end="60" vehsPerHour="119.6098364889459"/>
  <flow id="JF47387" begin="0" fromJunction="J2" toJunction="J3" end="60" vehsPerHour="136.93017269831967"/>
  <flow id="JF47388" begin="0" fromJunction="J2" toJunction="J4" end="60" vehsPerHour="115.19618897442372"/>
  <flow id="JF47389" begin="0" fromJunction="J3" toJunction="J0" end="60" vehsPerHour="112.68188643950529"/>
  <flow id="JF47390" begin="0" fromJunction="J3" toJunction="J4" end="60" vehsPerHour="132.5544857016659"/>
  <flow id="JF47391" begin="0" fromJunction="J4" toJunction="J0" end="60" vehsPerHour="35.12242663951"/>
  <flow id="JF47392" begin="0" fromJunction="J4" toJunction="J2" end="60" vehsPerHour="86.75021319220507"/>
  <flow id="JF47393" begin="0" fromJunction="J4" toJunction="J3" end="60" vehsPerHour="28.340048526110085"/>
  <flow id="JF47394" begin="60" fromJunction="J0" toJunction="J2" end="120" vehsPerHour="31.905591470425428"/>
  <flow id="JF47395" begin="60" fromJunction="J0" toJunction="J3" end="120" vehsPerHour="120.83202310678327"/>
  <flow id="JF47396" begin="60" fromJunction="J0" toJunction="J4" end="120" vehsPerHour="0.9456260041385991"/>
  <flow id="JF47397" begin="60" fromJunction="J2" toJunction="J0" end="120" vehsPerHour="96.27712684093686"/>
  <flow id="JF47398" begin="60" fromJunction="J2" toJunction="J4" end="120" vehsPerHour="57.404612406686496"/>
  <flow id="JF47399" begin="60" fromJunction="J3" toJunction="J0" end="120" vehsPerHour="47.32970290115394"/>
  <flow id="JF47400" begin="60" fromJunction="J3" toJunction="J2" end="120" vehsPerHour="54.15127828869258"/>
  <flow id="JF47401" begin="60" fromJunction="J3" toJunction="J4" end="120" vehsPerHour="108.46979045525927"/>
  <flow id="JF47402" begin="60" fromJunction="J4" toJunction="J2" end="120" vehsPerHour="80.99704540470692"/>
  <flow id="JF47403" begin="60" fromJunction="J4" toJunction="J3" end="120" vehsPerHour="48.07911709709059"/>
  <flow id="JF47404" begin="120" fromJunction="J0" toJunction="J2" end="180" vehsPerHour="48.9236243018429"/>
  <flow id="JF47405" begin="120" fromJunction="J0" toJunction="J3" end="180" vehsPerHour="59.63786862926661"/>
  <flow id="JF47406" begin="120" fromJunction="J0" toJunction="J4" end="180" vehsPerHour="60.52129550046874"/>
  <flow id="JF47407" begin="120" fromJunction="J2" toJunction="J0" end="180" vehsPerHour="37.78478681698341"/>
  <flow id="JF47408" begin="120" fromJunction="J2" toJunction="J3" end="180" vehsPerHour="55.27037875414402"/>
  <flow id="JF47409" begin="120" fromJunction="J2" toJunction="J4" end="180" vehsPerHour="124.62290748923141"/>
  <flow id="JF47410" begin="120" fromJunction="J3" toJunction="J0" end="180" vehsPerHour="44.92439501081139"/>
  <flow id="JF47411" begin="120" fromJunction="J3" toJunction="J2" end="180" vehsPerHour="46.53554206557895"/>
  <flow id="JF47412" begin="120" fromJunction="J4" toJunction="J2" end="180" vehsPerHour="31.798575333499254"/>
  <flow id="JF47413" begin="120" fromJunction="J4" toJunction="J3" end="180" vehsPerHour="81.19515274153449"/>
  <flow id="JF47414" begin="180" fromJunction="J0" toJunction="J2" end="240" vehsPerHour="88.05964337222318"/>
  <flow id="JF47415" begin="180" fromJunction="J0" toJunction="J3" end="240" vehsPerHour="13.778983426853868"/>
  <flow id="JF47416" begin="180" fromJunction="J0" toJunction="J4" end="240" vehsPerHour="78.11798958813203"/>
  <flow id="JF47417" begin="180" fromJunction="J2" toJunction="J0" end="240" vehsPerHour="34.388284245411405"/>
  <flow id="JF47418" begin="180" fromJunction="J2" toJunction="J3" end="240" vehsPerHour="17.04566763372585"/>
  <flow id="JF47419" begin="180" fromJunction="J3" toJunction="J0" end="240" vehsPerHour="8.077159635316786"/>
  <flow id="JF47420" begin="180" fromJunction="J3" toJunction="J2" end="240" vehsPerHour="100.77483339095868"/>
  <flow id="JF47421" begin="180" fromJunction="J3" toJunction="J4" end="240" vehsPerHour="47.11227859953023"/>
  <flow id="JF47422" begin="180" fromJunction="J4" toJunction="J0" end="240" vehsPerHour="36.695480724172995"/>
  <flow id="JF47423" begin="180" fromJunction="J4" toJunction="J2" end="240" vehsPerHour="23.241228473475406"/>
  <flow id="JF47424" begin="180" fromJunction="J4" toJunction="J3" end="240" vehsPerHour="47.97555011396805"/>
  <flow id="JF47425" begin="240" fromJunction="J0" toJunction="J2" end="300" vehsPerHour="80.36014044585312"/>
  <flow id="JF47426" begin="240" fromJunction="J2" toJunction="J3" end="300" vehsPerHour="51.91311153581005"/>
  <flow id="JF47427" begin="240" fromJunction="J2" toJunction="J4" end="300" vehsPerHour="70.00770856518592"/>
  <flow id="JF47428" begin="240" fromJunction="J3" toJunction="J2" end="300" vehsPerHour="9.465142556408415"/>
  <flow id="JF47429" begin="240" fromJunction="J4" toJunction="J2" end="300" vehsPerHour="88.34966490349076"/>
  <flow id="JF47430" begin="240" fromJunction="J4" toJunction="J3" end="300" vehsPerHour="73.67627786710703"/>
  <flow id="JF47431" begin="300" fromJunction="J0" toJunction="J3" end="360" vehsPerHour="95.54337564296304"/>
  <flow id="JF47432" begin="300" fromJunction="J0" toJunction="J4" end="360" vehsPerHour="133.164335978918"/>
  <flow id="JF47433" begin="300" fromJunction="J2" toJunction="J0" end="360" vehsPerHour="33.522332915269494"/>
  <flow id="JF47434" begin="300" fromJunction="J2" toJunction="J3" end="360" vehsPerHour="86.77669894561187"/>
  <flow id="JF47435" begin="300" fromJunction="J2" toJunction="J4" end="360" vehsPerHour="71.7611918043596"/>
  <flow id="JF47436" begin="300" fromJunction="J3" toJunction="J0" end="360" vehsPerHour="83.97973923864063"/>
  <flow id="JF47437" begin="300" fromJunction="J3" toJunction="J2" end="360" vehsPerHour="75.04082766585745"/>
  <flow id="JF47438" begin="300" fromJunction="J3" toJunction="J4" end="360" vehsPerHour="100.88781719787414"/>
  <flow id="JF47439" begin="300" fromJunction="J4" toJunction="J0" end="360" vehsPerHour="105.44087903549402"/>
  <flow id="JF47440" begin="300" fromJunction="J4" toJunction="J2" end="360" vehsPerHour="112.15228245388967"/>
  <flow id="JF47441" begin="300" fromJunction="J4" toJunction="J3" end="360" vehsPerHour="39.57517006643075"/>
  <flow id="JF47442" begin="360" fromJunction="J0" toJunction="J2" end="420" vehsPerHour="86.21285848028435"/>
  <flow id="JF47443" begin="360" fromJunction="J0" toJunction="J3" end="420" vehsPerHour="90.27482714717299"/>
  <flow id="JF47444" begin="360" fromJunction="J0" toJunction="J4" end="420" vehsPerHour="50.65606319461403"/>
  <flow id="JF47445" begin="360" fromJunction="J2" toJunction="J3" end="420" vehsPerHour="129.47674741792812"/>
  <flow id="JF47446" begin="360" fromJunction="J2" toJunction="J4" end="420" vehsPerHour="28.979112868081266"/>
  <flow id="JF47447" begin="360" fromJunction="J3" toJunction="J0" end="420" vehsPerHour="46.16210189588536"/>
  <flow id="JF47448" begin="360" fromJunction="J3" toJunction="J2" end="420" vehsPerHour="104.58527821307369"/>
  <flow id="JF47449" begin="360" fromJunction="J4" toJunction="J0" end="420" vehsPerHour="94.88648652498789"/>
  <flow id="JF47450" begin="360" fromJunction="J4" toJunction="J2" end="420" vehsPerHour="84.10081479139471"/>
  <flow id="JF47451" begin="360" fromJunction="J4" toJunction="J3" end="420" vehsPerHour="92.11871811275678"/>
  <flow id="JF47452" begin="420" fromJunction="J0" toJunction="J2" end="480" vehsPerHour="48.437818114430485"/>
  <flow id="JF47453" begin="420" fromJunction="J0" toJunction="J4" end="480" vehsPerHour="123.3293399569536"/>
  <flow id="JF47454" begin="420" fromJunction="J2" toJunction="J0" end="480" vehsPerHour="39.520732842776816"/>
  <flow id="JF47455" begin="420" fromJunction="J2" toJunction="J3" end="480" vehsPerHour="104.16011782745271"/>
  <flow id="JF47456" begin="420" fromJunction="J2" toJunction="J4" end="480" vehsPerHour="49.52809618633128"/>
  <flow id="JF47457" begin="420" fromJunction="J3" toJunction="J0" end="480" vehsPerHour="50.22818156298699"/>
  <flow id="JF47458" begin="420" fromJunction="J3" toJunction="J2" end="480" vehsPerHour="10.406490831628577"/>
  <flow id="JF47459" begin="420" fromJunction="J3" toJunction="J4" end="480" vehsPerHour="31.416836437369774"/>
  <flow id="JF47460" begin="420" fromJunction="J4" toJunction="J0" end="480" vehsPerHour="63.995280409442984"/>
  <flow id="JF47461" begin="420" fromJunction="J4" toJunction="J2" end="480" vehsPerHour="69.09445176156906"/>
  <flow id="JF47462" begin="480" fromJunction="J0" toJunction="J3" end="540" vehsPerHour="4.538412308278881"/>
  <flow id="JF47463" begin="480" fromJunction="J0" toJunction="J4" end="540" vehsPerHour="19.169210008299416"/>
  <flow id="JF47464" begin="480" fromJunction="J2" toJunction="J3" end="540" vehsPerHour="88.09905559736414"/>
  <flow id="JF47465" begin="480" fromJunction="J2" toJunction="J4" end="540" vehsPerHour="10.495527847787468"/>
  <flow id="JF47466" begin="480" fromJunction="J3" toJunction="J0" end="540" vehsPerHour="115.69156466701634"/>
  <flow id="JF47467" begin="480" fromJunction="J3" toJunction="J2" end="540" vehsPerHour="97.20580002437761"/>
  <flow id="JF47468" begin="480" fromJunction="J3" toJunction="J4" end="540" vehsPerHour="27.55303596094459"/>
  <flow id="JF47469" begin="480" fromJunction="J4" toJunction="J0" end="540" vehsPerHour="81.88584632484485"/>
  <flow id="JF47470" begin="480" fromJunction="J4" toJunction="J2" end="540" vehsPerHour="23.75442774541601"/>
  <flow id="JF47471" begin="480" fromJunction="J4" toJunction="J3" end="540" vehsPerHour="109.06864736684268"/>
  <flow id="JF47472" begin="540" fromJunction="J0" toJunction="J2" end="600" vehsPerHour="60.92254829490323"/>
  <flow id="JF47473" begin="540" fromJunction="J0" toJunction="J4" end="600" vehsPerHour="10.802432205452224"/>
  <flow id="JF47474" begin="540" fromJunction="J2" toJunction="J0" end="600" vehsPerHour="97.43821543738818"/>
  <flow id="JF47475" begin="540" fromJunction="J2" toJunction="J4" end="600" vehsPerHour="22.917096401797536"/>
  <flow id="JF47476" begin="540" fromJunction="J3" toJunction="J0" end="600" vehsPerHour="67.5058676612497"/>
  <flow id="JF47477" begin="540" fromJunction="J3" toJunction="J2" end="600" vehsPerHour="79.75316375270307"/>
  <flow id="JF47478" begin="540" fromJunction="J3" toJunction="J4" end="600" vehsPerHour="3.0869694386417414"/>
  <flow id="JF47479" begin="540" fromJunction="J4" toJunction="J0" end="600" vehsPerHour="32.20738964559786"/>
  <flow id="JF47480" begin="600" fromJunction="J0" toJunction="J2" end="660" vehsPerHour="39.852740625610224"/>
  <flow id="JF47481" begin="600" fromJunction="J0" toJunction="J3" end="660" vehsPerHour="74.65331766267957"/>
  <flow id="JF47482" begin="600" fromJunction="J0" toJunction="J4" end="660" vehsPerHour="41.54423329413082"/>
  <flow id="JF47483" begin="600" fromJunction="J2" toJunction="J0" end="660" vehsPerHour="86.85013745792048"/>
  <flow id="JF47484" begin="600" fromJunction="J2" toJunction="J3" end="660" vehsPerHour="62.12335475342343"/>
  <flow id="JF47485" begin="600" fromJunction="J2" toJunction="J4" end="660" vehsPerHour="106.14005644217768"/>
  <flow id="JF47486" begin="600" fromJunction="J3" toJunction="J0" end="660" vehsPerHour="19.65060545548205"/>
  <flow id="JF47487" begin="600" fromJunction="J3" toJunction="J2" end="660" vehsPerHour="126.45769335595934"/>
  <flow id="JF47488" begin="600" fromJunction="J3" toJunction="J4" end="660" vehsPerHour="6.481636678950017"/>
  <flow id="JF47489" begin="600" fromJunction="J4" toJunction="J2" end="660" vehsPerHour="3.593861187850016"/>
  <flow id="JF47490" begin="600" fromJunction="J4" toJunction="J3" end="660" vehsPerHour="74.73357744369663"/>
  <flow id="JF47491" begin="660" fromJunction="J0" toJunction="J2" end="720" vehsPerHour="52.19135991777637"/>
  <flow id="JF47492" begin="660" fromJunction="J0" toJunction="J3" end="720" vehsPerHour="80.0404553650624"/>
  <flow id="JF47493" begin="660" fromJunction="J0" toJunction="J4" end="720" vehsPerHour="3.162404443730125"/>
  <flow id="JF47494" begin="660" fromJunction="J2" toJunction="J3" end="720" vehsPerHour="105.66035753046017"/>
  <flow id="JF47495" begin="660" fromJunction="J2" toJunction="J4" end="720" vehsPerHour="110.35910822089544"/>
  <flow id="JF47496" begin="660" fromJunction="J3" toJunction="J0" end="720" vehsPerHour="13.931256374991513"/>
  <flow id="JF47497" begin="660" fromJunction="J3" toJunction="J2" end="720" vehsPerHour="89.37980949723907"/>
  <flow id="JF47498" begin="660" fromJunction="J3" toJunction="J4" end="720" vehsPerHour="96.51836670853459"/>
  <flow id="JF47499" begin="660" fromJunction="J4" toJunction="J0" end="720" vehsPerHour="47.44810274974646"/>
  <flow id="JF47500" begin="660" fromJunction="J4" toJunction="J2" end="720" vehsPerHour="53.728167453593755"/>
  <flow id="JF47501" begin="660" fromJunction="J4" toJunction="J3" end="720" vehsPerHour="5.61346925530263"/>
  <flow id="JF47502" begin="720" fromJunction="J0" toJunction="J2" end="780" vehsPerHour="23.935388698499526"/>
  <flow id="JF47503" begin="720" fromJunction="J0" toJunction="J3" end="780" vehsPerHour="6.10092101945002"/>
  <flow id="JF47504" begin="720" fromJunction="J0" toJunction="J4" end="780" vehsPerHour="118.68364389036607"/>
  <flow id="JF47505" begin="720" fromJunction="J2" toJunction="J0" end="780" vehsPerHour="36.86972696662314"/>
  <flow id="JF47506" begin="720" fromJunction="J2" toJunction="J3" end="780" vehsPerHour="100.77777901536818"/>
  <flow id="JF47507" begin="720" fromJunction="J2" toJunction="J4" end="780" vehsPerHour="123.75140734999594"/>
  <flow id="JF47508" begin="720" fromJunction="J3" toJunction="J0" end="780" vehsPerHour="112.95158061921018"/>
  <flow id="JF47509" begin="720" fromJunction="J3" toJunction="J4" end="780" vehsPerHour="126.46229473108242"/>
  <flow id="JF47510" begin="720" fromJunction="J4" toJunction="J0" end="780" vehsPerHour="0.7855955916862314"/>
  <flow id="JF47511" begin="720" fromJunction="J4" toJunction="J2" end="780" vehsPerHour="14.1636282721489"/>
  <flow id="JF47512" begin="780" fromJunction="J0" toJunction="J2" end="840" vehsPerHour="13.134776673917495"/>
  <flow id="JF47513" begin="780" fromJunction="J0" toJunction="J3" end="840" vehsPerHour="40.586734393870266"/>
  <flow id="JF47514" begin="780" fromJunction="J0" toJunction="J4" end="840" vehsPerHour="124.58907399561798"/>
  <flow id="JF47515" begin="780" fromJunction="J2" toJunction="J0" end="840" vehsPerHour="70.55730089809244"/>
  <flow id="JF47516" begin="780" fromJunction="J2" toJunction="J4" end="840" vehsPerHour="77.09191349050708"/>
  <flow id="JF47517" begin="780" fromJunction="J3" toJunction="J0" end="840" vehsPerHour="112.98400871788921"/>
  <flow id="JF47518" begin="780" fromJunction="J3" toJunction="J2" end="840" vehsPerHour="55.30899608574222"/>
  <flow id="JF47519" begin="780" fromJunction="J3" toJunction="J4" end="840" vehsPerHour="55.964190236722594"/>
  <flow id="JF47520" begin="780" fromJunction="J4" toJunction="J2" end="840" vehsPerHour="62.264512653238754"/>
  <flow id="JF47521" begin="780" fromJunction="J4" toJunction="J3" end="840" vehsPerHour="77.31313262596139"/>
  <flow id="JF47522" begin="840" fromJunction="J0" toJunction="J2" end="900" vehsPerHour="95.62157749207493"/>
  <flow id="JF47523" begin="840" fromJunction="J0" toJunction="J3" end="900" vehsPerHour="124.20367154808278"/>
  <flow id="JF47524" begin="840" fromJunction="J0" toJunction="J4" end="900" vehsPerHour="7.001765702384632"/>
  <flow id="JF47525" begin="840" fromJunction="J2" toJunction="J0" end="900" vehsPerHour="39.68522833578823"/>
  <flow id="JF47526" begin="840" fromJunction="J3" toJunction="J0" end="900" vehsPerHour="86.73420141395447"/>
  <flow id="JF47527" begin="840" fromJunction="J4" toJunction="J0" end="900" vehsPerHour="56.60004691299915"/>
  <flow id="JF47528" begin="840" fromJunction="J4" toJunction="J2" end="900" vehsPerHour="53.60448959160611"/>
  <flow id="JF47529" begin="840" fromJunction="J4" toJunction="J3" end="900" vehsPerHour="9.381578539692951"/>
  <flow id="JF47530" begin="900" fromJunction="J0" toJunction="J2" end="960" vehsPerHour="72.27132417083995"/>
  <flow id="JF47531" begin="900" fromJunction="J0" toJunction="J3" end="960" vehsPerHour="54.443415977626834"/>
  <flow id="JF47532" begin="900" fromJunction="J2" toJunction="J0" end="960" vehsPerHour="13.54976591987377"/>
  <flow id="JF47533" begin="900" fromJunction="J2" toJunction="J4" end="960" vehsPerHour="102.24031576388462"/>
  <flow id="JF47534" begin="900" fromJunction="J3" toJunction="J0" end="960" vehsPerHour="128.03354772307964"/>
  <flow id="JF47535" begin="900" fromJunction="J3" toJunction="J2" end="960" vehsPerHour="54.123550514897246"/>
  <flow id="JF47536" begin="900" fromJunction="J4" toJunction="J0" end="960" vehsPerHour="101.76773873912344"/>
  <flow id="JF47537" begin="900" fromJunction="J4" toJunction="J2" end="960" vehsPerHour="67.17688762760037"/>
  <flow id="JF47538" begin="900" fromJunction="J4" toJunction="J3" end="960" vehsPerHour="86.42048163290657"/>
  <flow id="JF47539" begin="960" fromJunction="J0" toJunction="J2" end="1020" vehsPerHour="67.6145853191993"/>
  <flow id="JF47540" begin="960" fromJunction="J0" toJunction="J3" end="1020" vehsPerHour="123.7374414151028"/>
  <flow id="JF47541" begin="960" fromJunction="J0" toJunction="J4" end="1020" vehsPerHour="102.34244780795322"/>
  <flow id="JF47542" begin="960" fromJunction="J2" toJunction="J0" end="1020" vehsPerHour="98.83441392938744"/>
  <flow id="JF47543" begin="960" fromJunction="J2" toJunction="J3" end="1020" vehsPerHour="84.7037355776536"/>
  <flow id="JF47544" begin="960" fromJunction="J2" toJunction="J4" end="1020" vehsPerHour="136.25606415721938"/>
  <flow id="JF47545" begin="960" fromJunction="J3" toJunction="J0" end="1020" vehsPerHour="70.38518551676586"/>
  <flow id="JF47546" begin="960" fromJunction="J3" toJunction="J2" end="1020" vehsPerHour="62.42267853213447"/>
  <flow id="JF47547" begin="960" fromJunction="J3" toJunction="J4" end="1020" vehsPerHour="38.07599360323841"/>
  <flow id="JF47548" begin="960" fromJunction="J4" toJunction="J0" end="1020" vehsPerHour="79.22680725920183"/>
  <flow id="JF47549" begin="960" fromJunction="J4" toJunction="J2" end="1020" vehsPerHour="18.320342618288542"/>
  <flow id="JF47550" begin="960" fromJunction="J4" toJunction="J3" end="1020" vehsPerHour="95.93888157037964"/>
  <flow id="JF47551" begin="1020" fromJunction="J0" toJunction="J2" end="1080" vehsPerHour="89.02556385569191"/>
  <flow id="JF47552" begin="1020" fromJunction="J2" toJunction="J0" end="1080" vehsPerHour="96.06650771339405"/>
  <flow id="JF47553" begin="1020" fromJunction="J2" toJunction="J4" end="1080" vehsPerHour="24.246476954383667"/>
  <flow id="JF47554" begin="1020" fromJunction="J3" toJunction="J0" end="1080" vehsPerHour="107.20270105728108"/>
  <flow id="JF47555" begin="1020" fromJunction="J3" toJunction="J2" end="1080" vehsPerHour="109.30640646194273"/>
  <flow id="JF47556" begin="1020" fromJunction="J4" toJunction="J0" end="1080" vehsPerHour="75.806200468225"/>
  <flow id="JF47557" begin="1020" fromJunction="J4" toJunction="J2" end="1080" vehsPerHour="7.342867832255394"/>
  <flow id="JF47558" begin="1020" fromJunction="J4" toJunction="J3" end="1080" vehsPerHour="35.50299562989593"/>
  <flow id="JF47559" begin="1080" fromJunction="J0" toJunction="J2" end="1140" vehsPerHour="85.94447763169117"/>
  <flow id="JF47560" begin="1080" fromJunction="J0" toJunction="J3" end="1140" vehsPerHour="14.311045618225688"/>
  <flow id="JF47561" begin="1080" fromJunction="J0" toJunction="J4" end="1140" vehsPerHour="28.54515498583136"/>
  <flow id="JF47562" begin="1080" fromJunction="J2" toJunction="J0" end="1140" vehsPerHour="116.92809345293334"/>
  <flow id="JF47563" begin="1080" fromJunction="J2" toJunction="J3" end="1140" vehsPerHour="105.61399592968044"/>
  <flow id="JF47564" begin="1080" fromJunction="J2" toJunction="J4" end="1140" vehsPerHour="120.84124618550635"/>
  <flow id="JF47565" begin="1080" fromJunction="J3" toJunction="J0" end="1140" vehsPerHour="135.16003152780775"/>
  <flow id="JF47566" begin="1080" fromJunction="J3" toJunction="J2" end="1140" vehsPerHour="40.776700675953705"/>
  <flow id="JF47567" begin="1080" fromJunction="J3" toJunction="J4" end="1140" vehsPerHour="0.28863430328948014"/>
  <flow id="JF47568" begin="1080" fromJunction="J4" toJunction="J2" end="1140" vehsPerHour="49.37150076266532"/>
  <flow id="JF47569" begin="1080" fromJunction="J4" toJunction="J3" end="1140" vehsPerHour="13.777824775116184"/>
  <flow id="JF47570" begin="1140" fromJunction="J0" toJunction="J3" end="1200" vehsPerHour="124.16274460799838"/>
  <flow id="JF47571" begin="1140" fromJunction="J2" toJunction="J0" end="1200" vehsPerHour="83.17549595084505"/>
  <flow id="JF47572" begin="1140" fromJunction="J2" toJunction="J4" end="1200" vehsPerHour="104.63553660469854"/>
  <flow id="JF47573" begin="1140" fromJunction="J4" toJunction="J0" end="1200" vehsPerHour="73.5093087399979"/>
  <flow id="JF47574" begin="1140" fromJunction="J4" toJunction="J2" end="1200" vehsPerHour="110.97970760779677"/>
  <flow id="JF47575" begin="1140" fromJunction="J4" toJunction="J3" end="1200" vehsPerHour="114.97033936146038"/>
  <flow id="JF47576" begin="1200" fromJunction="J0" toJunction="J3" end="1260" vehsPerHour="50.97241106499647"/>
  <flow id="JF47577" begin="1200" fromJunction="J0" toJunction="J4" end="1260" vehsPerHour="81.60867810167973"/>
  <flow id="JF47578" begin="1200" fromJunction="J2" toJunction="J0" end="1260" vehsPerHour="15.549090334746897"/>
  <flow id="JF47579" begin="1200" fromJunction="J2" toJunction="J3" end="1260" vehsPerHour="94.53346626984961"/>
  <flow id="JF47580" begin="1200" fromJunction="J3" toJunction="J0" end="1260" vehsPerHour="85.9065390391161"/>
  <flow id="JF47581" begin="1200" fromJunction="J3" toJunction="J4" end="1260" vehsPerHour="29.688356688403445"/>
  <flow id="JF47582" begin="1200" fromJunction="J4" toJunction="J0" end="1260" vehsPerHour="29.765953255126"/>
  <flow id="JF47583" begin="1200" fromJunction="J4" toJunction="J2" end="1260" vehsPerHour="85.6696402356287"/>
  <flow id="JF47584" begin="1200" fromJunction="J4" toJunction="J3" end="1260" vehsPerHour="86.71496511285916"/>
  <flow id="JF47585" begin="1260" fromJunction="J0" toJunction="J2" end="1320" vehsPerHour="44.37524229210757"/>
  <flow id="JF47586" begin="1260" fromJunction="J0" toJunction="J3" end="1320" vehsPerHour="55.008936631785446"/>
  <flow id="JF47587" begin="1260" fromJunction="J0" toJunction="J4" end="1320" vehsPerHour="16.287961991951583"/>
  <flow id="JF47588" begin="1260" fromJunction="J2" toJunction="J3" end="1320" vehsPerHour="43.757820412855864"/>
  <flow id="JF47589" begin="1260" fromJunction="J3" toJunction="J0" end="1320" vehsPerHour="113.28946999625603"/>
  <flow id="JF47590" begin="1260" fromJunction="J3" toJunction="J2" end="1320" vehsPerHour="59.226689077050715"/>
  <flow id="JF47591" begin="1260" fromJunction="J3" toJunction="J4" end="1320" vehsPerHour="13.92118079645779"/>
  <flow id="JF47592" begin="1260" fromJunction="J4" toJunction="J0" end="1320" vehsPerHour="109.31612839931813"/>
  <flow id="JF47593" begin="1260" fromJunction="J4" toJunction="J2" end="1320" vehsPerHour="52.59315092939103"/>
  <flow id="JF47594" begin="1260" fromJunction="J4" toJunction="J3" end="1320" vehsPerHour="31.59226160535923"/>
  <flow id="JF47595" begin="1320" fromJunction="J0" toJunction="J4" end="1380" vehsPerHour="128.6237283273416"/>
  <flow id="JF47596" begin="1320" fromJunction="J2" toJunction="J3" end="1380" vehsPerHour="106.92519236706543"/>
  <flow id="JF47597" begin="1320" fromJunction="J2" toJunction="J4" end="1380" vehsPerHour="2.926579341435455"/>
  <flow id="JF47598" begin="1320" fromJunction="J3" toJunction="J0" end="1380" vehsPerHour="26.983862838830028"/>
  <flow id="JF47599" begin="1320" fromJunction="J3" toJunction="J2" end="1380" vehsPerHour="106.47401775325592"/>
  <flow id="JF47600" begin="1320" fromJunction="J3" toJunction="J4" end="1380" vehsPerHour="32.50524640889042"/>
  <flow id="JF47601" begin="1320" fromJunction="J4" toJunction="J2" end="1380" vehsPerHour="37.19577781060904"/>
  <flow id="JF47602" begin="1320" fromJunction="J4" toJunction="J3" end="1380" vehsPerHour="131.97367059585287"/>
  <flow id="JF47603" begin="1380" fromJunction="J0" toJunction="J3" end="1440" vehsPerHour="56.225377281242515"/>
  <flow id="JF47604" begin="1380" fromJunction="J0" toJunction="J4" end="1440" vehsPerHour="66.3926728276444"/>
  <flow id="JF47605" begin="1380" fromJunction="J2" toJunction="J0" end="1440" vehsPerHour="99.18967796097448"/>
  <flow id="JF47606" begin="1380" fromJunction="J2" toJunction="J3" end="1440" vehsPerHour="43.07019593988603"/>
  <flow id="JF47607" begin="1380" fromJunction="J3" toJunction="J0" end="1440" vehsPerHour="115.77664810534529"/>
  <flow id="JF47608" begin="1380" fromJunction="J3" toJunction="J4" end="1440" vehsPerHour="117.07779289636593"/>
  <flow id="JF47609" begin="1380" fromJunction="J4" toJunction="J3" end="1440" vehsPerHour="31.52620126477986"/>
  <flow id="JF47610" begin="1440" fromJunction="J0" toJunction="J3" end="1500" vehsPerHour="63.71015650196074"/>
  <flow id="JF47611" begin="1440" fromJunction="J0" toJunction="J4" end="1500" vehsPerHour="12.819422358233462"/>
  <flow id="JF47612" begin="1440" fromJunction="J2" toJunction="J0" end="1500" vehsPerHour="104.84793342308059"/>
  <flow id="JF47613" begin="1440" fromJunction="J2" toJunction="J4" end="1500" vehsPerHour="67.11760601452775"/>
  <flow id="JF47614" begin="1440" fromJunction="J3" toJunction="J0" end="1500" vehsPerHour="122.0070279347179"/>
  <flow id="JF47615" begin="1440" fromJunction="J3" toJunction="J2" end="1500" vehsPerHour="69.91482301294545"/>
  <flow id="JF47616" begin="1440" fromJunction="J3" toJunction="J4" end="1500" vehsPerHour="74.52591673080344"/>
  <flow id="JF47617" begin="1440" fromJunction="J4" toJunction="J0" end="1500" vehsPerHour="94.14228586936035"/>
  <flow id="JF47618" begin="1440" fromJunction="J4" toJunction="J2" end="1500" vehsPerHour="72.63148558164174"/>
  <flow id="JF47619" begin="1440" fromJunction="J4" toJunction="J3" end="1500" vehsPerHour="34.87219618374594"/>
  <flow id="JF47620" begin="1500" fromJunction="J0" toJunction="J2" end="1560" vehsPerHour="79.32480574156816"/>
  <flow id="JF47621" begin="1500" fromJunction="J0" toJunction="J3" end="1560" vehsPerHour="31.6138028795541"/>
  <flow id="JF47622" begin="1500" fromJunction="J2" toJunction="J0" end="1560" vehsPerHour="74.4957765708246"/>
  <flow id="JF47623" begin="1500" fromJunction="J2" toJunction="J3" end="1560" vehsPerHour="112.56223316483347"/>
  <flow id="JF47624" begin="1500" fromJunction="J2" toJunction="J4" end="1560" vehsPerHour="136.81842117007403"/>
  <flow id="JF47625" begin="1500" fromJunction="J3" toJunction="J0" end="1560" vehsPerHour="27.61867945839924"/>
  <flow id="JF47626" begin="1500" fromJunction="J3" toJunction="J2" end="1560" vehsPerHour="44.56885850315997"/>
  <flow id="JF47627" begin="1500" fromJunction="J3" toJunction="J4" end="1560" vehsPerHour="47.126566645044555"/>
  <flow id="JF47628" begin="1500" fromJunction="J4" toJunction="J0" end="1560" vehsPerHour="116.18268543915343"/>
  <flow id="JF47629" begin="1500" fromJunction="J4" toJunction="J3" end="1560" vehsPerHour="61.83197772860014"/>
  <flow id="JF47630" begin="1560" fromJunction="J0" toJunction="J2" end="1620" vehsPerHour="117.15161518845595"/>
  <flow id="JF47631" begin="1560" fromJunction="J2" toJunction="J3" end="1620" vehsPerHour="131.83639942662697"/>
  <flow id="JF47632" begin="1560" fromJunction="J2" toJunction="J4" end="1620" vehsPerHour="41.17060569953181"/>
  <flow id="JF47633" begin="1560" fromJunction="J3" toJunction="J0" end="1620" vehsPerHour="115.48607888535422"/>
  <flow id="JF47634" begin="1560" fromJunction="J3" toJunction="J2" end="1620" vehsPerHour="74.57771800477184"/>
  <flow id="JF47635" begin="1560" fromJunction="J3" toJunction="J4" end="1620" vehsPerHour="107.23684524308797"/>
  <flow id="JF47636" begin="1560" fromJunction="J4" toJunction="J0" end="1620" vehsPerHour="128.2238302336497"/>
  <flow id="JF47637" begin="1560" fromJunction="J4" toJunction="J2" end="1620" vehsPerHour="93.9472007482564"/>
  <flow id="JF47638" begin="1560" fromJunction="J4" toJunction="J3" end="1620" vehsPerHour="26.409563996972533"/>
  <flow id="JF47639" begin="1620" fromJunction="J0" toJunction="J3" end="1680" vehsPerHour="122.85847443997798"/>
  <flow id="JF47640" begin="1620" fromJunction="J0" toJunction="J4" end="1680" vehsPerHour="76.08593097883247"/>
  <flow id="JF47641" begin="1620" fromJunction="J2" toJunction="J3" end="1680" vehsPerHour="128.08834663639823"/>
  <flow id="JF47642" begin="1620" fromJunction="J2" toJunction="J4" end="1680" vehsPerHour="18.311768918160084"/>
  <flow id="JF47643" begin="1620" fromJunction="J3" toJunction="J0" end="1680" vehsPerHour="63.43021956343995"/>
  <flow id="JF47644" begin="1620" fromJunction="J3" toJunction="J2" end="1680" vehsPerHour="70.23333195640757"/>
  <flow id="JF47645" begin="1620" fromJunction="J3" toJunction="J4" end="1680" vehsPerHour="136.22385053772734"/>
  <flow id="JF47646" begin="1620" fromJunction="J4" toJunction="J0" end="1680" vehsPerHour="39.30897544512045"/>
  <flow id="JF47647" begin="1620" fromJunction="J4" toJunction="J2" end="1680" vehsPerHour="61.148300788157535"/>
  <flow id="JF47648" begin="1620" fromJunction="J4" toJunction="J3" end="1680" vehsPerHour="6.295418051537177"/>
  <flow id="JF47649" begin="1680" fromJunction="J0" toJunction="J2" end="1740" vehsPerHour="24.453658568018103"/>
  <flow id="JF47650" begin="1680" fromJunction="J0" toJunction="J3" end="1740" vehsPerHour="7.00941431826177"/>