<?xml version="1.0" encoding="UTF-8"?>
<routes xmlns:xsi="http://www.w3.org/2001/XMLSchema-instance" xsi:noNamespaceSchemaLocation="http://sumo.dlr.de/xsd/routes_file.xsd">
  <flow id="JF51974" begin="0" fromJunction="J0" toJunction="J2" end="60" vehsPerHour="8.65047138753631"/>
  <flow id="JF51975" begin="0" fromJunction="J0" toJunction="J3" end="60" vehsPerHour="133.61377003240136"/>
  <flow id="JF51976" begin="0" fromJunction="J2" toJunction="J0" end="60" vehsPerHour="34.607997312218195"/>
  <flow id="JF51977" begin="0" fromJunction="J2" toJunction="J3" end="60" vehsPerHour="84.56023623243114"/>
  <flow id="JF51978" begin="0" fromJunction="J2" toJunction="J4" end="60" vehsPerHour="133.3753577203284"/>
  <flow id="JF51979" begin="0" fromJunction="J3" toJunction="J0" end="60" vehsPerHour="31.872786950688415"/>
  <flow id="JF51980" begin="0" fromJunction="J3" toJunction="J2" end="60" vehsPerHour="96.26968144602637"/>
  <flow id="JF51981" begin="0" fromJunction="J3" toJunction="J4" end="60" vehsPerHour="134.66234037921345"/>
  <flow id="JF51982" begin="0" fromJunction="J4" toJunction="J0" end="60" vehsPerHour="72.08537752159178"/>
  <flow id="JF51983" begin="0" fromJunction="J4" toJunction="J3" end="60" vehsPerHour="67.25889477363096"/>
  <flow id="JF51984" begin="60" fromJunction="J0" toJunction="J4" end="120" vehsPerHour="8.87992811516497"/>
  <flow id="JF51985" begin="60" fromJunction="J2" toJunction="J0" end="120" vehsPerHour="5.975692766253136"/>
  <flow id="JF51986" begin="60" fromJunction="J2" toJunction="J3" end="120" vehsPerHour="124.27972540873382"/>
  <flow id="JF51987" begin="60" fromJunction="J2" toJunction="J4" end="120" vehsPerHour="119.71777637603267"/>
  <flow id="JF51988" begin="60" fromJunction="J3" toJunction="J0" end="120" vehsPerHour="18.997213070129927"/>
  <flow id="JF51989" begin="60" fromJunction="J3" toJunction="J2" end="120" vehsPerHour="101.18975783945903"/>
  <flow id="JF51990" begin="60" fromJunction="J4" toJunction="J0" end="120" vehsPerHour="133.2199095509801"/>
  <flow id="JF51991" begin="60" fromJunction="J4" toJunction="J2" end="120" vehsPerHour="52.38320470263126"/>
  <flow id="JF51992" begin="60" fromJunction="J4" toJunction="J3" end="120" vehsPerHour="119.26717168149061"/>
  <flow id="JF51993" begin="120" fromJunction="J0" toJunction="J2" end="180" vehsPerHour="62.2192176178526"/>
  <flow id="JF51994" begin="120" fromJunction="J0" toJunction="J3" end="180" vehsPerHour="28.95502784649379"/>
  <flow id="JF51995" begin="120" fromJunction="J2" toJunction="J0" end="180" vehsPerHour="51.041198028176"/>
  <flow id="JF51996" begin="120" fromJunction="J2" toJunction="J3" end="180" vehsPerHour="3.8989433900977413"/>
  <flow id="JF51997" begin="120" fromJunction="J2" toJunction="J4" end="180" vehsPerHour="19.860712500356108"/>
  <flow id="JF51998" begin="120" fromJunction="J3" toJunction="J0" end="180" vehsPerHour="73.6617209394749"/>
  <flow id="JF51999" begin="120" fromJunction="J3" toJunction="J2" end="180" vehsPerHour="22.129662227374958"/>
  <flow id="JF52000" begin="120" fromJunction="J4" toJunction="J0" end="180" vehsPerHour="14.120695765379791"/>
  <flow id="JF52001" begin="120" fromJunction="J4" toJunction="J2" end="180" vehsPerHour="17.46183465702129"/>
  <flow id="JF52002" begin="120" fromJunction="J4" toJunction="J3" end="180" vehsPerHour="3.2014975426229855"/>
  <flow id="JF52003" begin="180" fromJunction="J0" toJunction="J2" end="240" vehsPerHour="2.356669104956774"/>
  <flow id="JF52004" begin="180" fromJunction="J0" toJunction="J3" end="240" vehsPerHour="99.3862751092218"/>
  <flow id="JF52005" begin="180" fromJunction="J2" toJunction="J0" end="240" vehsPerHour="96.61495709492644"/>
  <flow id="JF52006" begin="180" fromJunction="J2" toJunction="J3" end="240" vehsPerHour="101.71950428102707"/>
  <flow id="JF52007" begin="180" fromJunction="J4" toJunction="J2" end="240" vehsPerHour="136.51463909888713"/>
  <flow id="JF52008" begin="240" fromJunction="J0" toJunction="J2" end="300" vehsPerHour="119.98489900918517"/>
  <flow id="JF52009" begin="240" fromJunction="J0" toJunction="J4" end="300" vehsPerHour="118.08795145965315"/>
  <flow id="JF52010" begin="240" fromJunction="J2" toJunction="J4" end="300" vehsPerHour="21.551620261630706"/>
  <flow id="JF52011" begin="240" fromJunction="J3" toJunction="J0" end="300" vehsPerHour="24.218426804067953"/>
  <flow id="JF52012" begin="240" fromJunction="J3" toJunction="J2" end="300" vehsPerHour="100.52089305749107"/>
  <flow id="JF52013" begin="240" fromJunction="J3" toJunction="J4" end="300" vehsPerHour="90.75659466615099"/>
  <flow id="JF52014" begin="240" fromJunction="J4" toJunction="J0" end="300" vehsPerHour="39.33922704651467"/>
  <flow id="JF52015" begin="240" fromJunction="J4" toJunction="J2" end="300" vehsPerHour="43.47387013022336"/>
  <flow id="JF52016" begin="300" fromJunction="J0" toJunction="J2" end="360" vehsPerHour="80.47811804620942"/>
  <flow id="JF52017" begin="300" fromJunction="J2" toJunction="J3" end="360" vehsPerHour="72.7710445135683"/>
  <flow id="JF52018" begin="300" fromJunction="J3" toJunction="J0" end="360" vehsPerHour="40.2263369986764"/>
  <flow id="JF52019" begin="300" fromJunction="J3" toJunction="J4" end="360" vehsPerHour="25.646283295912603"/>
  <flow id="JF52020" begin="300" fromJunction="J4" toJunction="J0" end="360" vehsPerHour="129.22285371595837"/>
  <flow id="JF52021" begin="300" fromJunction="J4" toJunction="J2" end="360" vehsPerHour="23.269489278088393"/>
  <flow id="JF52022" begin="300" fromJunction="J4" toJunction="J3" end="360" vehsPerHour="30.254481803853565"/>
  <flow id="JF52023" begin="360" fromJunction="J0" toJunction="J2" end="420" vehsPerHour="67.00185655138092"/>
  <flow id="JF52024" begin="360" fromJunction="J0" toJunction="J3" end="420" vehsPerHour="128.90978186851132"/>
  <flow id="JF52025" begin="360" fromJunction="J0" toJunction="J4" end="420" vehsPerHour="105.43249075884557"/>
  <flow id="JF52026" begin="360" fromJunction="J2" toJunction="J0" end="420" vehsPerHour="69.06253535802927"/>
  <flow id="JF52027" begin="360" fromJunction="J2" toJunction="J3" end="420" vehsPerHour="135.1977169742716"/>
  <flow id="JF52028" begin="360" fromJunction="J3" toJunction="J2" end="420" vehsPerHour="65.36522825684338"/>
  <flow id="JF52029" begin="360" fromJunction="J3" toJunction="J4" end="420" vehsPerHour="137.1607536584254"/>
  <flow id="JF52030" begin="360" fromJunction="J4" toJunction="J0" end="420" vehsPerHour="127.73520096837383"/>
  <flow id="JF52031" begin="360" fromJunction="J4" toJunction="J3" end="420" vehsPerHour="42.68044119597263"/>
  <flow id="JF52032" begin="420" fromJunction="J0" toJunction="J3" end="480" vehsPerHour="96.3027772056035"/>
  <flow id="JF52033" begin="420" fromJunction="J0" toJunction="J4" end="480" vehsPerHour="27.379044592069256"/>
  <flow id="JF52034" begin="420" fromJunction="J2" toJunction="J0" end="480" vehsPerHour="33.98693854333847"/>
  <flow id="JF52035" begin="420" fromJunction="J2" toJunction="J3" end="480" vehsPerHour="105.94701114159506"/>
  <flow id="JF52036" begin="420" fromJunction="J2" toJunction="J4" end="480" vehsPerHour="62.137038135095395"/>
  <flow id="JF52037" begin="420" fromJunction="J3" toJunction="J0" end="480" vehsPerHour="63.917513840824896"/>
  <flow id="JF52038" begin="420" fromJunction="J3" toJunction="J2" end="480" vehsPerHour="37.95295265219971"/>
  <flow id="JF52039" begin="420" fromJunction="J3" toJunction="J4" end="480" vehsPerHour="101.8398281585652"/>
  <flow id="JF52040" begin="420" fromJunction="J4" toJunction="J2" end="480" vehsPerHour="81.82716864487041"/>
  <flow id="JF52041" begin="420" fromJunction="J4" toJunction="J3" end="480" vehsPerHour="50.25282889784354"/>
  <flow id="JF52042" begin="480" fromJunction="J0" toJunction="J2" end="540" vehsPerHour="1.3414525091113714"/>
  <flow id="JF52043" begin="480" fromJunction="J0" toJunction="J3" end="540" vehsPerHour="124.01132004264323"/>
  <flow id="JF52044" begin="480" fromJunction="J2" toJunction="J3" end="540" vehsPerHour="48.87280064393149"/>
  <flow id="JF52045" begin="480" fromJunction="J2" toJunction="J4" end="540" vehsPerHour="101.1555498077916"/>
  <flow id="JF52046" begin="480" fromJunction="J3" toJunction="J0" end="540" vehsPerHour="77.10151894196012"/>
  <flow id="JF52047" begin="480" fromJunction="J3" toJunction="J2" end="540" vehsPerHour="111.34699768480579"/>
  <flow id="JF52048" begin="480" fromJunction="J3" toJunction="J4" end="540" vehsPerHour="123.18434524307844"/>
  <flow id="JF52049" begin="480" fromJunction="J4" toJunction="J0" end="540" vehsPerHour="115.97837578071474"/>
  <flow id="JF52050" begin="480" fromJunction="J4" toJunction="J2" end="540" vehsPerHour="24.79576022626879"/>
  <flow id="JF52051" begin="480" fromJunction="J4" toJunction="J3" end="540" vehsPerHour="118.16596105885783"/>
  <flow id="JF52052" begin="540" fromJunction="J0" toJunction="J3" end="600" vehsPerHour="51.78090960406517"/>
  <flow id="JF52053" begin="540" fromJunction="J0" toJunction="J4" end="600" vehsPerHour="98.25853556474794"/>
  <flow id="JF52054" begin="540" fromJunction="J2" toJunction="J0" end="600" vehsPerHour="77.46880215575447"/>
  <flow id="JF52055" begin="540" fromJunction="J2" toJunction="J3" end="600" vehsPerHour="7.782960172756404"/>
  <flow id="JF52056" begin="540" fromJunction="J2" toJunction="J4" end="600" vehsPerHour="75.10287764454982"/>
  <flow id="JF52057" begin="540" fromJunction="J3" toJunction="J0" end="600" vehsPerHour="63.36899149615554"/>
  <flow id="JF52058" begin="540" fromJunction="J3" toJunction="J2" end="600" vehsPerHour="55.03167969491227"/>
  <flow id="JF52059" begin="540" fromJunction="J3" toJunction="J4" end="600" vehsPerHour="77.53563376112008"/>
  <flow id="JF52060" begin="540" fromJunction="J4" toJunction="J0" end="600" vehsPerHour="11.663680760697202"/>
  <flow id="JF52061" begin="540" fromJunction="J4" toJunction="J2" end="600" vehsPerHour="65.61822331398187"/>
  <flow id="JF52062" begin="540" fromJunction="J4" toJunction="J3" end="600" vehsPerHour="127.62792986199281"/>
  <flow id="JF52063" begin="600" fromJunction="J0" toJunction="J2" end="660" vehsPerHour="31.303089822803347"/>
  <flow id="JF52064" begin="600" fromJunction="J0" toJunction="J3" end="660" vehsPerHour="130.6427447302161"/>
  <flow id="JF52065" begin="600" fromJunction="J0" toJunction="J4" end="660" vehsPerHour="102.3406699849995"/>
  <flow id="JF52066" begin="600" fromJunction="J2" toJunction="J0" end="660" vehsPerHour="126.19556462243412"/>
  <flow id="JF52067" begin="600" fromJunction="J2" toJunction="J3" end="660" vehsPerHour="32.00384514769883"/>
  <flow id="JF52068" begin="600" fromJunction="J2" toJunction="J4" end="660" vehsPerHour="123.93196944673564"/>
  <flow id="JF52069" begin="600" fromJunction="J3" toJunction="J2" end="660" vehsPerHour="132.8787336333199"/>
  <flow id="JF52070" begin="600" fromJunction="J4" toJunction="J2" end="660" vehsPerHour="14.460630609172975"/>
  <flow id="JF52071" begin="600" fromJunction="J4" toJunction="J3" end="660" vehsPerHour="77.88339388146223"/>
  <flow id="JF52072" begin="660" fromJunction="J0" toJunction="J2" end="720" vehsPerHour="2.5338541734263855"/>
  <flow id="JF52073" begin="660" fromJunction="J0" toJunction="J3" end="720" vehsPerHour="125.15395525234737"/>
  <flow id="JF52074" begin="660" fromJunction="J2" toJunction="J4" end="720" vehsPerHour="136.58341811964925"/>
  <flow id="JF52075" begin="660" fromJunction="J3" toJunction="J0" end="720" vehsPerHour="117.91498947155974"/>
  <flow id="JF52076" begin="660" fromJunction="J3" toJunction="J2" end="720" vehsPerHour="18.66953196683423"/>
  <flow id="JF52077" begin="660" fromJunction="J4" toJunction="J0" end="720" vehsPerHour="71.49252471706798"/>
  <flow id="JF52078" begin="660" fromJunction="J4" toJunction="J2" end="720" vehsPerHour="89.06533931683927"/>
  <flow id="JF52079" begin="660" fromJunction="J4" toJunction="J3" end="720" vehsPerHour="8.909468327223921"/>
  <flow id="JF52080" begin="720" fromJunction="J0" toJunction="J2" end="780" vehsPerHour="20.54036637059271"/>
  <flow id="JF52081" begin="720" fromJunction="J0" toJunction="J4" end="780" vehsPerHour="3.91050637493347"/>
  <flow id="JF52082" begin="720" fromJunction="J2" toJunction="J0" end="780" vehsPerHour="85.65894578228327"/>
  <flow id="JF52083" begin="720" fromJunction="J2" toJunction="J3" end="780" vehsPerHour="130.81807081994944"/>
  <flow id="JF52084" begin="720" fromJunction="J2" toJunction="J4" end="780" vehsPerHour="110.9111635164295"/>
  <flow id="JF52085" begin="720" fromJunction="J3" toJunction="J4" end="780" vehsPerHour="29.26462055494776"/>
  <flow id="JF52086" begin="720" fromJunction="J4" toJunction="J0" end="780" vehsPerHour="15.052869092025453"/>
  <flow id="JF52087" begin="780" fromJunction="J0" toJunction="J3" end="840" vehsPerHour="119.93724372153375"/>
  <flow id="JF52088" begin="780" fromJunction="J0" toJunction="J4" end="840" vehsPerHour="51.03878038187189"/>
  <flow id="JF52089" begin="780" fromJunction="J2" toJunction="J0" end="840" vehsPerHour="38.783633554311194"/>
  <flow id="JF52090" begin="780" fromJunction="J3" toJunction="J0" end="840" vehsPerHour="127.24370817067681"/>
  <flow id="JF52091" begin="780" fromJunction="J3" toJunction="J2" end="840" vehsPerHour="121.59687022285739"/>
  <flow id="JF52092" begin="780" fromJunction="J3" toJunction="J4" end="840" vehsPerHour="13.61138081403647"/>
  <flow id="JF52093" begin="780" fromJunction="J4" toJunction="J2" end="840" vehsPerHour="128.67986724790154"/>
  <flow id="JF52094" begin="780" fromJunction="J4" toJunction="J3" end="840" vehsPerHour="37.66999550153932"/>
  <flow id="JF52095" begin="840" fromJunction="J0" toJunction="J3" end="900" vehsPerHour="33.108194061126476"/>
  <flow id="JF52096" begin="840" fromJunction="J0" toJunction="J4" end="900" vehsPerHour="31.323772274903455"/>
  <flow id="JF52097" begin="840" fromJunction="J2" toJunction="J0" end="900" vehsPerHour="38.403555985687255"/>
  <flow id="JF52098" begin="840" fromJunction="J2" toJunction="J4" end="900" vehsPerHour="131.36991583028646"/>
  <flow id="JF52099" begin="840" fromJunction="J3" toJunction="J0" end="900" vehsPerHour="49.121208336784626"/>
  <flow id="JF52100" begin="840" fromJunction="J3" toJunction="J2" end="900" vehsPerHour="77.45531756204106"/>
  <flow id="JF52101" begin="840" fromJunction="J3" toJunction="J4" end="900" vehsPerHour="92.41037904037498"/>
  <flow id="JF52102" begin="840" fromJunction="J4" toJunction="J0" end="900" vehsPerHour="107.44643384934422"/>
  <flow id="JF52103" begin="840" fromJunction="J4" toJunction="J2" end="900" vehsPerHour="132.15670466288455"/>
  <flow id="JF52104" begin="840" fromJunction="J4" toJunction="J3" end="900" vehsPerHour="96.11179745029459"/>
  <flow id="JF52105" begin="900" fromJunction="J0" toJunction="J2" end="960" vehsPerHour="134.61755697823"/>
  <flow id="JF52106" begin="900" fromJunction="J0" toJunction="J4" end="960" vehsPerHour="46.2774706800968"/>
  <flow id="JF52107" begin="900" fromJunction="J2" toJunction="J0" end="960" vehsPerHour="134.11146932768298"/>
  <flow id="JF52108" begin="900" fromJunction="J2" toJunction="J3" end="960" vehsPerHour="52.60057149339544"/>
  <flow id="JF52109" begin="900" fromJunction="J2" toJunction="J4" end="960" vehsPerHour="112.29984649133"/>
  <flow id="JF52110" begin="900" fromJunction="J3" toJunction="J0" end="960" vehsPerHour="52.50415488792558"/>
  <flow id="JF52111" begin="900" fromJunction="J3" toJunction="J2" end="960" vehsPerHour="101.39910904715364"/>
  <flow id="JF52112" begin="900" fromJunction="J4" toJunction="J0" end="960" vehsPerHour="62.916917620160596"/>
  <flow id="JF52113" begin="900" fromJunction="J4" toJunction="J2" end="960" vehsPerHour="129.96996875107206"/>
  <flow id="JF52114" begin="960" fromJunction="J0" toJunction="J2" end="1020" vehsPerHour="119.7528644915238"/>
  <flow id="JF52115" begin="960" fromJunction="J0" toJunction="J3" end="1020" vehsPerHour="56.769481301873775"/>
  <flow id="JF52116" begin="960" fromJunction="J0" toJunction="J4" end="1020" vehsPerHour="27.96280781704588"/>
  <flow id="JF52117" begin="960" fromJunction="J2" toJunction="J3" end="1020" vehsPerHour="111.25037213157073"/>
  <flow id="JF52118" begin="960" fromJunction="J2" toJunction="J4" end="1020" vehsPerHour="8.782120252757405"/>
  <flow id="JF52119" begin="960" fromJunction="J3" toJunction="J0" end="1020" vehsPerHour="55.140502798471815"/>
  <flow id="JF52120" begin="960" fromJunction="J3" toJunction="J4" end="1020" vehsPerHour="129.0323157744533"/>
  <flow id="JF52121" begin="960" fromJunction="J4" toJunction="J2" end="1020" vehsPerHour="75.52020777454484"/>
  <flow id="JF52122" begin="960" fromJunction="J4" toJunction="J3" end="1020" vehsPerHour="91.04510982935359"/>
  <flow id="JF52123" begin="1020" fromJunction="J0" toJunction="J2" end="1080" vehsPerHour="64.3458580867684"/>
  <flow id="JF52124" begin="1020" fromJunction="J0" toJunction="J3" end="1080" vehsPerHour="118.78027171522157"/>
  <flow id="JF52125" begin="1020" fromJunction="J0" toJunction="J4" end="1080" vehsPerHour="56.49237048035599"/>
  <flow id="JF52126" begin="1020" fromJunction="J2" toJunction="J3" end="1080" vehsPerHour="79.95210541694391"/>
  <flow id="JF52127" begin="1020" fromJunction="J2" toJunction="J4" end="1080" vehsPerHour="104.0907235360948"/>
  <flow id="JF52128" begin="1020" fromJunction="J3" toJunction="J2" end="1080" vehsPerHour="25.05843635568776"/>
  <flow id="JF52129" begin="1020" fromJunction="J3" toJunction="J4" end="1080" vehsPerHour="55.709616319226654"/>
  <flow id="JF52130" begin="1020" fromJunction="J4" toJunction="J0" end="1080" vehsPerHour="18.83661924165293"/>
  <flow id="JF52131" begin="1020" fromJunction="J4" toJunction="J3" end="1080" vehsPerHour="26.697012345759145"/>
  <flow id="JF52132" begin="1080" fromJunction="J0" toJunction="J3" end="1140" vehsPerHour="127.2123413100649"/>
  <flow id="JF52133" begin="1080" fromJunction="J0" toJunction="J4" end="1140" vehsPerHour="5.613136214141641"/>
  <flow id="JF52134" begin="1080" fromJunction="J2" toJunction="J3" end="1140" vehsPerHour="130.5527260240726"/>
  <flow id="JF52135" begin="1080" fromJunction="J3" toJunction="J0" end="1140" vehsPerHour="131.8197846656848"/>
  <flow id="JF52136" begin="1080" fromJunction="J3" toJunction="J2" end="1140" vehsPerHour="102.59352683401688"/>
  <flow id="JF52137" begin="1080" fromJunction="J3" toJunction="J4" end="1140" vehsPerHour="116.12065621079442"/>
  <flow id="JF52138" begin="1080" fromJunction="J4" toJunction="J0" end="1140" vehsPerHour="93.68266697907164"/>
  <flow id="JF52139" begin="1080" fromJunction="J4" toJunction="J2" end="1140" vehsPerHour="65.88338967543307"/>
  <flow id="JF52140" begin="1080" fromJunction="J4" toJunction="J3" end="1140" vehsPerHour="94.14086232222273"/>
  <flow id="JF52141" begin="1140" fromJunction="J0" toJunction="J2" end="1200" vehsPerHour="116.8307421046657"/>
  <flow id="JF52142" begin="1140" fromJunction="J0" toJunction="J4" end="1200" vehsPerHour="122.1521554003839"/>
  <flow id="JF52143" begin="1140" fromJunction="J2" toJunction="J0" end="1200" vehsPerHour="107.44690714417086"/>
  <flow id="JF52144" begin="1140" fromJunction="J3" toJunction="J0" end="1200" vehsPerHour="87.93677114155325"/>
  <flow id="JF52145" begin="1140" fromJunction="J3" toJunction="J4" end="1200" vehsPerHour="93.514121553669"/>
  <flow id="JF52146" begin="1140" fromJunction="J4" toJunction="J2" end="1200" vehsPerHour="99.64341793956586"/>
  <flow id="JF52147" begin="1200" fromJunction="J0" toJunction="J3" end="1260" vehsPerHour="16.68176743707993"/>
  <flow id="JF52148" begin="1200" fromJunction="J0" toJunction="J4" end="1260" vehsPerHour="13.337665262640154"/>
  <flow id="JF52149" begin="1200" fromJunction="J2" toJunction="J0" end="1260" vehsPerHour="10.690190632614021"/>
  <flow id="JF52150" begin="1200" fromJunction="J2" toJunction="J3" end="1260" vehsPerHour="81.32605399132636"/>
  <flow id="JF52151" begin="1200" fromJunction="J2" toJunction="J4" end="1260" vehsPerHour="85.56306057277985"/>
  <flow id="JF52152" begin="1200" fromJunction="J3" toJunction="J0" end="1260" vehsPerHour="55.18666414377721"/>
  <flow id="JF52153" begin="1200" fromJunction="J3" toJunction="J2" end="1260" vehsPerHour="103.80883882414228"/>
  <flow id="JF52154" begin="1200" fromJunction="J4" toJunction="J2" end="1260" vehsPerHour="87.3911274737563"/>
  <flow id="JF52155" begin="1200" fromJunction="J4" toJunction="J3" end="1260" vehsPerHour="135.48366145528414"/>
  <flow id="JF52156" begin="1260" fromJunction="J0" toJunction="J2" end="1320" vehsPerHour="81.03444723725899"/>
  <flow id="JF52157" begin="1260" fromJunction="J0" toJunction="J3" end="1320" vehsPerHour="102.54899616600754"/>
  <flow id="JF52158" begin="1260" fromJunction="J0" toJunction="J4" end="1320" vehsPerHour="55.889047318545444"/>
  <flow id="JF52159" begin="1260" fromJunction="J2" toJunction="J3" end="1320" vehsPerHour="12.066864578496554"/>
  <flow id="JF52160" begin="1260" fromJunction="J2" toJunction="J4" end="1320" vehsPerHour="67.5185677621822"/>
  <flow id="JF52161" begin="1260" fromJunction="J3" toJunction="J2" end="1320" vehsPerHour="85.34887927281736"/>
  <flow id="JF52162" begin="1260" fromJunction="J4" toJunction="J2" end="1320" vehsPerHour="92.03702843019369"/>
  <flow id="JF52163" begin="1260" fromJunction="J4" toJunction="J3" end="1320" vehsPerHour="63.61954194182205"/>
  <flow id="JF52164" begin="1320" fromJunction="J0" toJunction="J3" end="1380" vehsPerHour="45.950644359296845"/>
  <flow id="JF52165" begin="1320" fromJunction="J0" toJunction="J4" end="1380" vehsPerHour="118.76886123664596"/>
  <flow id="JF52166" begin="1320" fromJunction="J2" toJunction="J0" end="1380" vehsPerHour="91.09588649502847"/>
  <flow id="JF52167" begin="1320" fromJunction="J2" toJunction="J3" end="1380" vehsPerHour="82.38739912300146"/>
  <flow id="JF52168" begin="1320" fromJunction="J2" toJunction="J4" end="1380" vehsPerHour="122.89152227926398"/>
  <flow id="JF52169" begin="1320" fromJunction="J3" toJunction="J0" end="1380" vehsPerHour="64.94750022700507"/>
  <flow id="JF52170" begin="1320" fromJunction="J3" toJunction="J4" end="1380" vehsPerHour="8.23441282829515"/>
  <flow id="JF52171" begin="1320" fromJunction="J4" toJunction="J0" end="1380" vehsPerHour="47.14071951018661"/>
  <flow id="JF52172" begin="1320" fromJunction="J4" toJunction="J2" end="1380" vehsPerHour="15.122776542166328"/>
  <flow id="JF52173" begin="1320" fromJunction="J4" toJunction="J3" end="1380" vehsPerHour="80.60671365847126"/>
  <flow id="JF52174" begin="1380" fromJunction="J0" toJunction="J2" end="1440" vehsPerHour="43.28569640886245"/>
  <flow id="JF52175" begin="1380" fromJunction="J0" toJunction="J3" end="1440" vehsPerHour="81.79541486118498"/>
  <flow id="JF52176" begin="1380" fromJunction="J0" toJunction="J4" end="1440" vehsPerHour="129.8459651954572"/>
  <flow id="JF52177" begin="1380" fromJunction="J2" toJunction="J4" end="1440" vehsPerHour="14.080381068173597"/>
  <flow id="JF52178" begin="1380" fromJunction="J3" toJunction="J0" end="1440" vehsPerHour="45.98656470002181"/>
  <flow id="JF52179" begin="1380" fromJunction="J3" toJunction="J2" end="1440" vehsPerHour="73.12816765378969"/>
  <flow id="JF52180" begin="1380" fromJunction="J3" toJunction="J4" end="1440" vehsPerHour="10.703198479522618"/>
  <flow id="JF52181" begin="1380" fromJunction="J4" toJunction="J2" end="1440" vehsPerHour="99.79352778293058"/>
  <flow id="JF52182" begin="1440" fromJunction="J0" toJunction="J2" end="1500" vehsPerHour="85.63379600280209"/>
  <flow id="JF52183" begin="1440" fromJunction="J0" toJunction="J4" end="1500" vehsPerHour="4.07957961130513"/>
  <flow id="JF52184" begin="1440" fromJunction="J2" toJunction="J0" end="1500" vehsPerHour="85.80777705515777"/>
  <flow id="JF52185" begin="1440" fromJunction="J3" toJunction="J0" end="1500" vehsPerHour="101.31582300045035"/>
  <flow id="JF52186" begin="1440" fromJunction="J3" toJunction="J4" end="1500" vehsPerHour="77.03039507184081"/>
  <flow id="JF52187" begin="1500" fromJunction="J0" toJunction="J4" end="1560" vehsPerHour="37.62950863433941"/>
  <flow id="JF52188" begin="1500" fromJunction="J2" toJunction="J0" end="1560" vehsPerHour="74.73325570442957"/>
  <flow id="JF52189" begin="1500" fromJunction="J2" toJunction="J3" end="1560" vehsPerHour="67.04187051521235"/>
  <flow id="JF52190" begin="1500" fromJunction="J3" toJunction="J0" end="1560" vehsPerHour="120.5288870202476"/>
  <flow id="JF52191" begin="1500" fromJunction="J3" toJunction="J2" end="1560" vehsPerHour="6.075459935055271"/>
  <flow id="JF52192" begin="1500" fromJunction="J3" toJunction="J4" end="1560" vehsPerHour="17.965809641273"/>
  <flow id="JF52193" begin="1500" fromJunction="J4" toJunction="J0" end="1560" vehsPerHour="104.68794669627718"/>
  <flow id="JF52194" begin="1500" fromJunction="J4" toJunction="J3" end="1560" vehsPerHour="58.26239576661309"/>
  <flow id="JF52195" begin="1560" fromJunction="J0" toJunction="J4" end="1620" vehsPerHour="45.51939965770754"/>
  <flow id="JF52196" begin="1560" fromJunction="J2" toJunction="J0" end="1620" vehsPerHour="74.90396554917754"/>
  <flow id="JF52197" begin="1560" fromJunction="J2" toJunction="J4" end="1620" vehsPerHour="110.0584595287694"/>
  <flow id="JF52198" begin="1560" fromJunction="J3" toJunction="J2" end="1620" vehsPerHour="87.80705821895015"/>
  <flow id="JF52199" begin="1560" fromJunction="J3" toJunction="J4" end="1620" vehsPerHour="90.54161541940942"/>
  <flow id="JF52200" begin="1560" fromJunction="J4" toJunction="J0" end="1620" vehsPerHour="11.264920613192762"/>
  <flow id="JF52201" begin="1560" fromJunction="J4" toJunction="J2" end="1620" vehsPerHour="47.57728867162966"/>
  <flow id="JF52202" begin="1560" fromJunction="J4" toJunction="J3" end="1620" vehsPerHour="94.01375535284744"/>
  <flow id="JF52203" begin="1620" fromJunction="J0" toJunction="J3" end="1680" vehsPerHour="58.777375199346515"/>
  <flow id="JF52204" begin="1620" fromJunction="J0" toJunction="J4" end="1680" vehsPerHour="101.46644133097524"/>
  <flow id="JF52205" begin="1620" fromJunction="J2" toJunction="J0" end="1680" vehsPerHour="23.644782095408036"/>
  <flow id="JF52206" begin="1620" fromJunction="J2" toJunction="J3" end="1680" vehsPerHour="70.28698110115337"/>
  <flow id="JF52207" begin="1620" fromJunction="J2" toJunction="J4" end="1680" vehsPerHour="132.66297580554584"/>
  <flow id="JF52208" begin="1620" fromJunction="J3" toJunction="J0" end="1680" vehsPerHour="122.07591115477045"/>
  <flow id="JF52209" begin="1620" fromJunction="J3" toJunction="J2" end="1680" vehsPerHour="74.2378250417792"/>
  <flow id="JF52210" begin="1620" fromJunction="J3" toJunction="J4" end="1680" vehsPerHour="136.7497462197263"/>
  <flow id="JF52211" begin="1620" fromJunction="J4" toJunction="J0" end="1680" vehsPerHour="85.75252804290147"/>
  <flow id="JF52212" begin="1620" fromJunction="J4" toJunction="J2" end="1680" vehsPerHour="101.26351793498814"/>
  <flow id="JF52213" begin="1620" fromJunction="J4" toJunction="J3" end="1680" vehsPerHour="43.690043547769"/>
  <flow id="JF52214" begin="1680" fromJunction="J0" toJunction="J2" end="1740" vehsPerHour="88.6790912527859"/>
  <flow id="JF52215" begin="1680" fromJunction="J0" toJunction="J4" end="1740" vehsPerHour="125.42828237096742"/>
  <flow id="JF52216" begin="1680" fromJunction="J2" toJunction="J0" end="1740" vehsPerHour="135.87844173916676"/>
  <flow id="JF52217" begin="1680" fromJunction="J2" toJunction="J3" end="1740" vehsPerHour="27.624740402003752"/>
  <flow id="JF52218" begin="1680" fromJunction="J2" toJunction="J4" end="1740" vehsPerHour="21.210012298851076"/>
  <flow id="JF52219" begin="1680" fromJunction="J3" toJunction="J4" end="1740" vehsPerHour="52.457501150662125"/>
  <flow id="JF52220" begin="1680" fromJunction="J4" toJunction="J0" end="1740" vehsPerHour="117.78230194644418"/>
  <flow id="JF52221" begin="1680" fromJunction="J4" toJunction="J2" end="1740" vehsPerHour="84.46350909727822"/>
  <flow id="JF52222" begin="1680" fromJunction="J4" toJunction="J3" end="1740" vehsPerHour="81.51988366752022"/>
  <flow id="JF52223" begin="1740" fromJunction="J0" toJunction="J2" end="1800" vehsPerHour="8.32127595313387"/>
  <flow id="JF52224" begin="1740" fromJunction="J0" toJunction="J3" end="1800" vehsPerHour="14.219971841196232"/>
  <flow id="JF52225" begin="1740" fromJunction="J2" toJunction="J0" end="1800" vehsPerHour="83.80694870552726"/>
  <flow id="JF52226" begin="1740" fromJunction="J2" toJunction="J3" end="1800" vehsPerHour="132.09771787038932"/>
  <flow id="JF52227" begin="1740" fromJunction="J2" toJunction="J4" end="1800" vehsPerHour="50.267573879000345"/>
  <flow id="JF52228" begin="1740" fromJunction="J3" toJunction="J0" end="1800" vehsPerHour="15.276528194823992"/>
  <flow id="JF52229" begin="1740" fromJunction="J3" toJunction="J2" end="1800" vehsPerHour="65.53043151277316"/>
  <flow id="JF52230" begin="1740" fromJunction="J3" toJunction="J4" end="1800" vehsPerHour="58.14810305764368"/>
  <flow id="JF52231" begin="1740" fromJunction="J4" toJunction="J0" end="1800" vehsPerHour="70.72568421688011"/>
  <flow id="JF52232" begin="1740" fromJunction="J4" toJunction="J2" end="1800" vehsPerHour="92.01442399780669"/>
  <flow id="JF52233" begin="1800" fromJunction="J0" toJunction="J2" end="1860" vehsPerHour="83.01741119682409"/>
  <flow id="JF52234" begin="1800" fromJunction="J0" toJunction="J3" end="1860" vehsPerHour="55.97677305724942"/>
  <flow id="JF52235" begin="1800" fromJunction="J2" toJunction="J3" end="1860" vehsPerHour="92.31282531613657"/>
  <flow id="JF52236" begin="1800" fromJunction="J2" toJunction="J4" end="1860" vehsPerHour="96.97836389814263"/>
  <flow id="JF52237" begin="1800" fromJunction="J3" toJunction="J0" end="1860" vehsPerHour="99.50567745341327"/>
  <flow id="JF52238" begin="1800" fromJunction="J3" toJunction="J4" end="1860" vehsPerHour="4.109894627884163"/>
  <flow id="JF52239" begin="1800" fromJunction="J4" toJunction="J0" end="1860" vehsPerHour="48.71149671175624"/>