<?xml version="1.0" encoding="UTF-8"?>
<routes xmlns:xsi="http://www.w3.org/2001/XMLSchema-instance" xsi:noNamespaceSchemaLocation="http://sumo.dlr.de/xsd/routes_file.xsd">
  <flow id="JF45800" begin="0" fromJunction="J0" toJunction="J2" end="60" vehsPerHour="94.07335320614321"/>
  <flow id="JF45801" begin="0" fromJunction="J0" toJunction="J3" end="60" vehsPerHour="69.65716134808164"/>
  <flow id="JF45802" begin="0" fromJunction="J0" toJunction="J4" end="60" vehsPerHour="94.0636777868338"/>
  <flow id="JF45803" begin="0" fromJunction="J2" toJunction="J0" end="60" vehsPerHour="59.70583579887428"/>
  <flow id="JF45804" begin="0" fromJunction="J2" toJunction="J4" end="60" vehsPerHour="1.2315268822480807"/>
  <flow id="JF45805" begin="0" fromJunction="J3" toJunction="J2" end="60" vehsPerHour="20.578428666947268"/>
  <flow id="JF45806" begin="0" fromJunction="J4" toJunction="J0" end="60" vehsPerHour="52.98948707362262"/>
  <flow id="JF45807" begin="0" fromJunction="J4" toJunction="J2" end="60" vehsPerHour="110.29142381712488"/>
  <flow id="JF45808" begin="0" fromJunction="J4" toJunction="J3" end="60" vehsPerHour="122.02232674072098"/>
  <flow id="JF45809" begin="60" fromJunction="J0" toJunction="J2" end="120" vehsPerHour="85.09599555172915"/>
  <flow id="JF45810" begin="60" fromJunction="J0" toJunction="J4" end="120" vehsPerHour="108.38620581600058"/>
  <flow id="JF45811" begin="60" fromJunction="J2" toJunction="J3" end="120" vehsPerHour="29.75854873073602"/>
  <flow id="JF45812" begin="60" fromJunction="J2" toJunction="J4" end="120" vehsPerHour="90.76890735891797"/>
  <flow id="JF45813" begin="60" fromJunction="J3" toJunction="J0" end="120" vehsPerHour="39.12748409715677"/>
  <flow id="JF45814" begin="60" fromJunction="J3" toJunction="J2" end="120" vehsPerHour="135.74313100619176"/>
  <flow id="JF45815" begin="60" fromJunction="J3" toJunction="J4" end="120" vehsPerHour="67.73575883651431"/>
  <flow id="JF45816" begin="60" fromJunction="J4" toJunction="J0" end="120" vehsPerHour="63.41574823556931"/>
  <flow id="JF45817" begin="60" fromJunction="J4" toJunction="J2" end="120" vehsPerHour="46.74591402583892"/>
  <flow id="JF45818" begin="60" fromJunction="J4" toJunction="J3" end="120" vehsPerHour="87.76395970455621"/>
  <flow id="JF45819" begin="120" fromJunction="J0" toJunction="J3" end="180" vehsPerHour="57.72890632015189"/>
  <flow id="JF45820" begin="120" fromJunction="J2" toJunction="J0" end="180" vehsPerHour="91.97764629456655"/>
  <flow id="JF45821" begin="120" fromJunction="J2" toJunction="J4" end="180" vehsPerHour="110.88077088321673"/>
  <flow id="JF45822" begin="120" fromJunction="J3" toJunction="J0" end="180" vehsPerHour="46.71105174585832"/>
  <flow id="JF45823" begin="120" fromJunction="J3" toJunction="J2" end="180" vehsPerHour="106.62300090316438"/>
  <flow id="JF45824" begin="120" fromJunction="J3" toJunction="J4" end="180" vehsPerHour="38.75748914803088"/>
  <flow id="JF45825" begin="120" fromJunction="J4" toJunction="J0" end="180" vehsPerHour="4.35627570642108"/>
  <flow id="JF45826" begin="120" fromJunction="J4" toJunction="J2" end="180" vehsPerHour="84.91918410419822"/>
  <flow id="JF45827" begin="180" fromJunction="J0" toJunction="J2" end="240" vehsPerHour="135.2562570657999"/>
  <flow id="JF45828" begin="180" fromJunction="J0" toJunction="J4" end="240" vehsPerHour="72.45993160727923"/>
  <flow id="JF45829" begin="180" fromJunction="J2" toJunction="J0" end="240" vehsPerHour="57.65800591568782"/>
  <flow id="JF45830" begin="180" fromJunction="J2" toJunction="J3" end="240" vehsPerHour="59.82557635078175"/>
  <flow id="JF45831" begin="180" fromJunction="J3" toJunction="J0" end="240" vehsPerHour="120.42731163468359"/>
  <flow id="JF45832" begin="180" fromJunction="J3" toJunction="J2" end="240" vehsPerHour="81.206772052627"/>
  <flow id="JF45833" begin="180" fromJunction="J3" toJunction="J4" end="240" vehsPerHour="17.7285643075104"/>
  <flow id="JF45834" begin="180" fromJunction="J4" toJunction="J0" end="240" vehsPerHour="117.71029353694718"/>
  <flow id="JF45835" begin="240" fromJunction="J0" toJunction="J4" end="300" vehsPerHour="27.976740700461033"/>
  <flow id="JF45836" begin="240" fromJunction="J2" toJunction="J0" end="300" vehsPerHour="89.27332097984792"/>
  <flow id="JF45837" begin="240" fromJunction="J3" toJunction="J2" end="300" vehsPerHour="123.4549085941376"/>
  <flow id="JF45838" begin="240" fromJunction="J4" toJunction="J2" end="300" vehsPerHour="111.58756122091053"/>
  <flow id="JF45839" begin="240" fromJunction="J4" toJunction="J3" end="300" vehsPerHour="96.41031672862383"/>
  <flow id="JF45840" begin="300" fromJunction="J0" toJunction="J2" end="360" vehsPerHour="116.21208397927859"/>
  <flow id="JF45841" begin="300" fromJunction="J0" toJunction="J3" end="360" vehsPerHour="64.50990186536164"/>
  <flow id="JF45842" begin="300" fromJunction="J2" toJunction="J0" end="360" vehsPerHour="124.85234701932605"/>
  <flow id="JF45843" begin="300" fromJunction="J2" toJunction="J4" end="360" vehsPerHour="114.11567248485647"/>
  <flow id="JF45844" begin="300" fromJunction="J3" toJunction="J2" end="360" vehsPerHour="17.051013980665264"/>
  <flow id="JF45845" begin="300" fromJunction="J3" toJunction="J4" end="360" vehsPerHour="43.5612872026921"/>
  <flow id="JF45846" begin="300" fromJunction="J4" toJunction="J2" end="360" vehsPerHour="33.17027023011818"/>
  <flow id="JF45847" begin="360" fromJunction="J0" toJunction="J3" end="420" vehsPerHour="2.686398509391435"/>
  <flow id="JF45848" begin="360" fromJunction="J0" toJunction="J4" end="420" vehsPerHour="101.17056348981015"/>
  <flow id="JF45849" begin="360" fromJunction="J2" toJunction="J0" end="420" vehsPerHour="16.381136282364782"/>
  <flow id="JF45850" begin="360" fromJunction="J2" toJunction="J3" end="420" vehsPerHour="34.477969737185184"/>
  <flow id="JF45851" begin="360" fromJunction="J2" toJunction="J4" end="420" vehsPerHour="72.60297053466559"/>
  <flow id="JF45852" begin="360" fromJunction="J3" toJunction="J0" end="420" vehsPerHour="22.45370701178355"/>
  <flow id="JF45853" begin="360" fromJunction="J3" toJunction="J4" end="420" vehsPerHour="98.48815481875043"/>
  <flow id="JF45854" begin="360" fromJunction="J4" toJunction="J0" end="420" vehsPerHour="5.177428928282492"/>
  <flow id="JF45855" begin="360" fromJunction="J4" toJunction="J3" end="420" vehsPerHour="12.722970085237401"/>
  <flow id="JF45856" begin="420" fromJunction="J0" toJunction="J2" end="480" vehsPerHour="94.99969743480892"/>
  <flow id="JF45857" begin="420" fromJunction="J0" toJunction="J3" end="480" vehsPerHour="80.61394636693238"/>
  <flow id="JF45858" begin="420" fromJunction="J0" toJunction="J4" end="480" vehsPerHour="7.490943635189865"/>
  <flow id="JF45859" begin="420" fromJunction="J2" toJunction="J0" end="480" vehsPerHour="35.50921009548895"/>
  <flow id="JF45860" begin="420" fromJunction="J2" toJunction="J4" end="480" vehsPerHour="111.64727392806843"/>
  <flow id="JF45861" begin="420" fromJunction="J3" toJunction="J2" end="480" vehsPerHour="5.639137406210507"/>
  <flow id="JF45862" begin="420" fromJunction="J4" toJunction="J0" end="480" vehsPerHour="16.335294926329993"/>
  <flow id="JF45863" begin="420" fromJunction="J4" toJunction="J3" end="480" vehsPerHour="25.171126730710597"/>
  <flow id="JF45864" begin="480" fromJunction="J0" toJunction="J3" end="540" vehsPerHour="4.451066645056712"/>
  <flow id="JF45865" begin="480" fromJunction="J0" toJunction="J4" end="540" vehsPerHour="86.80680777778493"/>
  <flow id="JF45866" begin="480" fromJunction="J2" toJunction="J0" end="540" vehsPerHour="108.55987435779669"/>
  <flow id="JF45867" begin="480" fromJunction="J2" toJunction="J3" end="540" vehsPerHour="126.51492616030123"/>
  <flow id="JF45868" begin="480" fromJunction="J3" toJunction="J0" end="540" vehsPerHour="11.601494132091934"/>
  <flow id="JF45869" begin="480" fromJunction="J3" toJunction="J2" end="540" vehsPerHour="66.91059601528116"/>
  <flow id="JF45870" begin="480" fromJunction="J4" toJunction="J0" end="540" vehsPerHour="82.46478532688491"/>
  <flow id="JF45871" begin="540" fromJunction="J0" toJunction="J2" end="600" vehsPerHour="33.51927700442841"/>
  <flow id="JF45872" begin="540" fromJunction="J2" toJunction="J0" end="600" vehsPerHour="32.32466718376162"/>
  <flow id="JF45873" begin="540" fromJunction="J2" toJunction="J4" end="600" vehsPerHour="133.29974077425828"/>
  <flow id="JF45874" begin="540" fromJunction="J3" toJunction="J0" end="600" vehsPerHour="54.49911595158158"/>
  <flow id="JF45875" begin="540" fromJunction="J3" toJunction="J2" end="600" vehsPerHour="104.74190265169746"/>
  <flow id="JF45876" begin="540" fromJunction="J3" toJunction="J4" end="600" vehsPerHour="104.76568792422778"/>
  <flow id="JF45877" begin="540" fromJunction="J4" toJunction="J0" end="600" vehsPerHour="78.87110166149384"/>
  <flow id="JF45878" begin="540" fromJunction="J4" toJunction="J3" end="600" vehsPerHour="127.08210431443764"/>
  <flow id="JF45879" begin="600" fromJunction="J0" toJunction="J2" end="660" vehsPerHour="55.217278739704135"/>
  <flow id="JF45880" begin="600" fromJunction="J2" toJunction="J0" end="660" vehsPerHour="47.32838518162402"/>
  <flow id="JF45881" begin="600" fromJunction="J2" toJunction="J4" end="660" vehsPerHour="85.9486103958632"/>
  <flow id="JF45882" begin="600" fromJunction="J3" toJunction="J2" end="660" vehsPerHour="3.0190229699425113"/>
  <flow id="JF45883" begin="600" fromJunction="J3" toJunction="J4" end="660" vehsPerHour="17.756840768681577"/>
  <flow id="JF45884" begin="600" fromJunction="J4" toJunction="J0" end="660" vehsPerHour="30.339755509450654"/>
  <flow id="JF45885" begin="600" fromJunction="J4" toJunction="J2" end="660" vehsPerHour="40.94820375877816"/>
  <flow id="JF45886" begin="600" fromJunction="J4" toJunction="J3" end="660" vehsPerHour="62.96180506019412"/>
  <flow id="JF45887" begin="660" fromJunction="J0" toJunction="J2" end="720" vehsPerHour="124.42717231317872"/>
  <flow id="JF45888" begin="660" fromJunction="J0" toJunction="J3" end="720" vehsPerHour="137.29900344099397"/>
  <flow id="JF45889" begin="660" fromJunction="J0" toJunction="J4" end="720" vehsPerHour="117.40940383485064"/>
  <flow id="JF45890" begin="660" fromJunction="J2" toJunction="J0" end="720" vehsPerHour="56.09955785035971"/>
  <flow id="JF45891" begin="660" fromJunction="J2" toJunction="J3" end="720" vehsPerHour="74.21633849464139"/>
  <flow id="JF45892" begin="660" fromJunction="J2" toJunction="J4" end="720" vehsPerHour="52.715877783869956"/>
  <flow id="JF45893" begin="660" fromJunction="J3" toJunction="J0" end="720" vehsPerHour="39.23487145624232"/>
  <flow id="JF45894" begin="660" fromJunction="J3" toJunction="J2" end="720" vehsPerHour="59.23483600019389"/>
  <flow id="JF45895" begin="660" fromJunction="J3" toJunction="J4" end="720" vehsPerHour="90.85342851149085"/>
  <flow id="JF45896" begin="660" fromJunction="J4" toJunction="J0" end="720" vehsPerHour="57.62557973958893"/>
  <flow id="JF45897" begin="660" fromJunction="J4" toJunction="J2" end="720" vehsPerHour="29.330383871002905"/>
  <flow id="JF45898" begin="720" fromJunction="J0" toJunction="J3" end="780" vehsPerHour="0.7826231349922819"/>
  <flow id="JF45899" begin="720" fromJunction="J0" toJunction="J4" end="780" vehsPerHour="86.4215196462901"/>
  <flow id="JF45900" begin="720" fromJunction="J2" toJunction="J0" end="780" vehsPerHour="0.9192748029345688"/>
  <flow id="JF45901" begin="720" fromJunction="J2" toJunction="J4" end="780" vehsPerHour="122.66449788787905"/>
  <flow id="JF45902" begin="720" fromJunction="J3" toJunction="J4" end="780" vehsPerHour="65.18326897840772"/>
  <flow id="JF45903" begin="720" fromJunction="J4" toJunction="J0" end="780" vehsPerHour="31.264781626187794"/>
  <flow id="JF45904" begin="720" fromJunction="J4" toJunction="J2" end="780" vehsPerHour="132.03356064988284"/>
  <flow id="JF45905" begin="720" fromJunction="J4" toJunction="J3" end="780" vehsPerHour="46.756489737166625"/>
  <flow id="JF45906" begin="780" fromJunction="J0" toJunction="J3" end="840" vehsPerHour="35.55781420121916"/>
  <flow id="JF45907" begin="780" fromJunction="J0" toJunction="J4" end="840" vehsPerHour="101.59770159790712"/>
  <flow id="JF45908" begin="780" fromJunction="J2" toJunction="J0" end="840" vehsPerHour="19.026097694582813"/>
  <flow id="JF45909" begin="780" fromJunction="J3" toJunction="J0" end="840" vehsPerHour="4.24663155794919"/>
  <flow id="JF45910" begin="780" fromJunction="J3" toJunction="J2" end="840" vehsPerHour="51.987486656014994"/>
  <flow id="JF45911" begin="780" fromJunction="J3" toJunction="J4" end="840" vehsPerHour="81.9870430856204"/>
  <flow id="JF45912" begin="780" fromJunction="J4" toJunction="J0" end="840" vehsPerHour="12.447731118246947"/>
  <flow id="JF45913" begin="780" fromJunction="J4" toJunction="J3" end="840" vehsPerHour="60.38931497633547"/>
  <flow id="JF45914" begin="840" fromJunction="J0" toJunction="J2" end="900" vehsPerHour="109.17842375555227"/>
  <flow id="JF45915" begin="840" fromJunction="J0" toJunction="J3" end="900" vehsPerHour="70.97503975709166"/>
  <flow id="JF45916" begin="840" fromJunction="J2" toJunction="J0" end="900" vehsPerHour="38.800854826374135"/>
  <flow id="JF45917" begin="840" fromJunction="J2" toJunction="J4" end="900" vehsPerHour="78.2638117953244"/>
  <flow id="JF45918" begin="840" fromJunction="J3" toJunction="J0" end="900" vehsPerHour="106.87582172457137"/>
  <flow id="JF45919" begin="840" fromJunction="J3" toJunction="J4" end="900" vehsPerHour="82.85635736468059"/>
  <flow id="JF45920" begin="840" fromJunction="J4" toJunction="J2" end="900" vehsPerHour="7.174051308458578"/>
  <flow id="JF45921" begin="840" fromJunction="J4" toJunction="J3" end="900" vehsPerHour="8.376199616437408"/>
  <flow id="JF45922" begin="900" fromJunction="J0" toJunction="J2" end="960" vehsPerHour="33.20408924789602"/>
  <flow id="JF45923" begin="900" fromJunction="J0" toJunction="J3" end="960" vehsPerHour="10.81284380371679"/>
  <flow id="JF45924" begin="900" fromJunction="J0" toJunction="J4" end="960" vehsPerHour="74.18698490103716"/>
  <flow id="JF45925" begin="900" fromJunction="J2" toJunction="J3" end="960" vehsPerHour="125.91246848434804"/>
  <flow id="JF45926" begin="900" fromJunction="J2" toJunction="J4" end="960" vehsPerHour="33.03533326522734"/>
  <flow id="JF45927" begin="900" fromJunction="J3" toJunction="J0" end="960" vehsPerHour="100.56205613156129"/>
  <flow id="JF45928" begin="900" fromJunction="J3" toJunction="J2" end="960" vehsPerHour="106.61387306851678"/>
  <flow id="JF45929" begin="900" fromJunction="J4" toJunction="J0" end="960" vehsPerHour="127.66906913279605"/>
  <flow id="JF45930" begin="900" fromJunction="J4" toJunction="J2" end="960" vehsPerHour="43.961769731783626"/>
  <flow id="JF45931" begin="900" fromJunction="J4" toJunction="J3" end="960" vehsPerHour="118.72964587432242"/>
  <flow id="JF45932" begin="960" fromJunction="J0" toJunction="J2" end="1020" vehsPerHour="46.916619132245145"/>
  <flow id="JF45933" begin="960" fromJunction="J0" toJunction="J4" end="1020" vehsPerHour="111.95228055810007"/>
  <flow id="JF45934" begin="960" fromJunction="J2" toJunction="J0" end="1020" vehsPerHour="136.7931602223698"/>
  <flow id="JF45935" begin="960" fromJunction="J2" toJunction="J3" end="1020" vehsPerHour="54.53035908652869"/>
  <flow id="JF45936" begin="960" fromJunction="J2" toJunction="J4" end="1020" vehsPerHour="32.366417199316636"/>
  <flow id="JF45937" begin="960" fromJunction="J3" toJunction="J0" end="1020" vehsPerHour="46.270123775001"/>
  <flow id="JF45938" begin="960" fromJunction="J3" toJunction="J2" end="1020" vehsPerHour="43.82695839873356"/>
  <flow id="JF45939" begin="960" fromJunction="J3" toJunction="J4" end="1020" vehsPerHour="87.41102686090721"/>
  <flow id="JF45940" begin="960" fromJunction="J4" toJunction="J0" end="1020" vehsPerHour="78.06404791476538"/>
  <flow id="JF45941" begin="1020" fromJunction="J0" toJunction="J2" end="1080" vehsPerHour="66.57297777413623"/>
  <flow id="JF45942" begin="1020" fromJunction="J0" toJunction="J3" end="1080" vehsPerHour="114.0101989895761"/>
  <flow id="JF45943" begin="1020" fromJunction="J0" toJunction="J4" end="1080" vehsPerHour="80.50666102153956"/>
  <flow id="JF45944" begin="1020" fromJunction="J2" toJunction="J3" end="1080" vehsPerHour="68.83133787496068"/>
  <flow id="JF45945" begin="1020" fromJunction="J2" toJunction="J4" end="1080" vehsPerHour="4.023365214389357"/>
  <flow id="JF45946" begin="1020" fromJunction="J3" toJunction="J0" end="1080" vehsPerHour="53.141071400258625"/>
  <flow id="JF45947" begin="1020" fromJunction="J3" toJunction="J2" end="1080" vehsPerHour="47.1257571952804"/>
  <flow id="JF45948" begin="1020" fromJunction="J4" toJunction="J0" end="1080" vehsPerHour="110.92046053499438"/>
  <flow id="JF45949" begin="1020" fromJunction="J4" toJunction="J2" end="1080" vehsPerHour="36.89978151181878"/>
  <flow id="JF45950" begin="1020" fromJunction="J4" toJunction="J3" end="1080" vehsPerHour="3.6818461766401516"/>
  <flow id="JF45951" begin="1080" fromJunction="J0" toJunction="J2" end="1140" vehsPerHour="134.92347709348198"/>
  <flow id="JF45952" begin="1080" fromJunction="J0" toJunction="J3" end="1140" vehsPerHour="107.49087397009542"/>
  <flow id="JF45953" begin="1080" fromJunction="J2" toJunction="J0" end="1140" vehsPerHour="53.07759182466147"/>
  <flow id="JF45954" begin="1080" fromJunction="J2" toJunction="J3" end="1140" vehsPerHour="13.965550689415062"/>
  <flow id="JF45955" begin="1080" fromJunction="J3" toJunction="J2" end="1140" vehsPerHour="40.31997016635838"/>
  <flow id="JF45956" begin="1080" fromJunction="J3" toJunction="J4" end="1140" vehsPerHour="72.7987668293519"/>
  <flow id="JF45957" begin="1080" fromJunction="J4" toJunction="J0" end="1140" vehsPerHour="55.277076027268016"/>
  <flow id="JF45958" begin="1080" fromJunction="J4" toJunction="J2" end="1140" vehsPerHour="18.085937314887573"/>
  <flow id="JF45959" begin="1140" fromJunction="J0" toJunction="J2" end="1200" vehsPerHour="65.93299233642799"/>
  <flow id="JF45960" begin="1140" fromJunction="J0" toJunction="J3" end="1200" vehsPerHour="111.29970503544565"/>
  <flow id="JF45961" begin="1140" fromJunction="J0" toJunction="J4" end="1200" vehsPerHour="44.17257670970129"/>
  <flow id="JF45962" begin="1140" fromJunction="J3" toJunction="J4" end="1200" vehsPerHour="0.5703282027337363"/>
  <flow id="JF45963" begin="1140" fromJunction="J4" toJunction="J0" end="1200" vehsPerHour="98.71939583764716"/>
  <flow id="JF45964" begin="1200" fromJunction="J0" toJunction="J2" end="1260" vehsPerHour="51.23283640397616"/>
  <flow id="JF45965" begin="1200" fromJunction="J0" toJunction="J3" end="1260" vehsPerHour="129.63082810171804"/>
  <flow id="JF45966" begin="1200" fromJunction="J0" toJunction="J4" end="1260" vehsPerHour="20.81434093502896"/>
  <flow id="JF45967" begin="1200" fromJunction="J2" toJunction="J0" end="1260" vehsPerHour="23.663703230856004"/>
  <flow id="JF45968" begin="1200" fromJunction="J2" toJunction="J4" end="1260" vehsPerHour="45.299876290622926"/>
  <flow id="JF45969" begin="1200" fromJunction="J3" toJunction="J4" end="1260" vehsPerHour="118.20111722347984"/>
  <flow id="JF45970" begin="1200" fromJunction="J4" toJunction="J0" end="1260" vehsPerHour="46.139112044457704"/>
  <flow id="JF45971" begin="1200" fromJunction="J4" toJunction="J2" end="1260" vehsPerHour="76.81550854630434"/>
  <flow id="JF45972" begin="1200" fromJunction="J4" toJunction="J3" end="1260" vehsPerHour="58.7414991537647"/>
  <flow id="JF45973" begin="1260" fromJunction="J0" toJunction="J3" end="1320" vehsPerHour="12.560465134182786"/>
  <flow id="JF45974" begin="1260" fromJunction="J2" toJunction="J0" end="1320" vehsPerHour="76.53339202260507"/>
  <flow id="JF45975" begin="1260" fromJunction="J2" toJunction="J3" end="1320" vehsPerHour="56.32704967293795"/>
  <flow id="JF45976" begin="1260" fromJunction="J2" toJunction="J4" end="1320" vehsPerHour="128.26317654168403"/>
  <flow id="JF45977" begin="1260" fromJunction="J3" toJunction="J0" end="1320" vehsPerHour="98.94037481621477"/>
  <flow id="JF45978" begin="1260" fromJunction="J3" toJunction="J2" end="1320" vehsPerHour="54.449149674455775"/>
  <flow id="JF45979" begin="1260" fromJunction="J3" toJunction="J4" end="1320" vehsPerHour="5.622039238890381"/>
  <flow id="JF45980" begin="1260" fromJunction="J4" toJunction="J0" end="1320" vehsPerHour="64.09291668685857"/>
  <flow id="JF45981" begin="1260" fromJunction="J4" toJunction="J2" end="1320" vehsPerHour="87.55697222747885"/>
  <flow id="JF45982" begin="1260" fromJunction="J4" toJunction="J3" end="1320" vehsPerHour="61.884721132594954"/>
  <flow id="JF45983" begin="1320" fromJunction="J0" toJunction="J2" end="1380" vehsPerHour="7.245898871009342"/>
  <flow id="JF45984" begin="1320" fromJunction="J0" toJunction="J3" end="1380" vehsPerHour="59.57529632490115"/>
  <flow id="JF45985" begin="1320" fromJunction="J0" toJunction="J4" end="1380" vehsPerHour="127.22313166129857"/>
  <flow id="JF45986" begin="1320" fromJunction="J2" toJunction="J0" end="1380" vehsPerHour="12.225468735904732"/>
  <flow id="JF45987" begin="1320" fromJunction="J2" toJunction="J3" end="1380" vehsPerHour="25.287933822802557"/>
  <flow id="JF45988" begin="1320" fromJunction="J2" toJunction="J4" end="1380" vehsPerHour="110.81956128309048"/>
  <flow id="JF45989" begin="1320" fromJunction="J3" toJunction="J0" end="1380" vehsPerHour="98.14387333885252"/>
  <flow id="JF45990" begin="1320" fromJunction="J3" toJunction="J2" end="1380" vehsPerHour="12.054652620006598"/>
  <flow id="JF45991" begin="1320" fromJunction="J4" toJunction="J0" end="1380" vehsPerHour="55.01907686467419"/>
  <flow id="JF45992" begin="1320" fromJunction="J4" toJunction="J2" end="1380" vehsPerHour="34.37803833532745"/>
  <flow id="JF45993" begin="1320" fromJunction="J4" toJunction="J3" end="1380" vehsPerHour="14.697162983775405"/>
  <flow id="JF45994" begin="1380" fromJunction="J0" toJunction="J2" end="1440" vehsPerHour="101.07602593361544"/>
  <flow id="JF45995" begin="1380" fromJunction="J0" toJunction="J3" end="1440" vehsPerHour="3.1286785885950223"/>
  <flow id="JF45996" begin="1380" fromJunction="J0" toJunction="J4" end="1440" vehsPerHour="136.89600612828286"/>
  <flow id="JF45997" begin="1380" fromJunction="J2" toJunction="J0" end="1440" vehsPerHour="82.98803191811128"/>
  <flow id="JF45998" begin="1380" fromJunction="J2" toJunction="J3" end="1440" vehsPerHour="26.36099351982636"/>
  <flow id="JF45999" begin="1380" fromJunction="J2" toJunction="J4" end="1440" vehsPerHour="136.0982257774965"/>
  <flow id="JF46000" begin="1380" fromJunction="J4" toJunction="J2" end="1440" vehsPerHour="104.79642437813422"/>
  <flow id="JF46001" begin="1380" fromJunction="J4" toJunction="J3" end="1440" vehsPerHour="102.72070058612097"/>
  <flow id="JF46002" begin="1440" fromJunction="J0" toJunction="J2" end="1500" vehsPerHour="68.51276652800428"/>
  <flow id="JF46003" begin="1440" fromJunction="J0" toJunction="J3" end="1500" vehsPerHour="50.84131615365086"/>
  <flow id="JF46004" begin="1440" fromJunction="J0" toJunction="J4" end="1500" vehsPerHour="82.43283775377223"/>
  <flow id="JF46005" begin="1440" fromJunction="J2" toJunction="J0" end="1500" vehsPerHour="100.69757231113606"/>
  <flow id="JF46006" begin="1440" fromJunction="J2" toJunction="J3" end="1500" vehsPerHour="113.4090073801821"/>
  <flow id="JF46007" begin="1440" fromJunction="J2" toJunction="J4" end="1500" vehsPerHour="68.97246090514989"/>
  <flow id="JF46008" begin="1440" fromJunction="J3" toJunction="J2" end="1500" vehsPerHour="41.72311955005776"/>
  <flow id="JF46009" begin="1440" fromJunction="J3" toJunction="J4" end="1500" vehsPerHour="64.61153134844615"/>
  <flow id="JF46010" begin="1440" fromJunction="J4" toJunction="J2" end="1500" vehsPerHour="77.62425934204522"/>
  <flow id="JF46011" begin="1440" fromJunction="J4" toJunction="J3" end="1500" vehsPerHour="78.71348136234718"/>
  <flow id="JF46012" begin="1500" fromJunction="J0" toJunction="J2" end="1560" vehsPerHour="17.280199806383997"/>
  <flow id="JF46013" begin="1500" fromJunction="J0" toJunction="J3" end="1560" vehsPerHour="69.66090727417517"/>
  <flow id="JF46014" begin="1500" fromJunction="J0" toJunction="J4" end="1560" vehsPerHour="121.38299688245411"/>
  <flow id="JF46015" begin="1500" fromJunction="J2" toJunction="J3" end="1560" vehsPerHour="5.571599464733017"/>
  <flow id="JF46016" begin="1500" fromJunction="J2" toJunction="J4" end="1560" vehsPerHour="17.978159637997212"/>
  <flow id="JF46017" begin="1500" fromJunction="J3" toJunction="J0" end="1560" vehsPerHour="51.40035972983943"/>
  <flow id="JF46018" begin="1500" fromJunction="J3" toJunction="J2" end="1560" vehsPerHour="103.77662081660402"/>
  <flow id="JF46019" begin="1500" fromJunction="J3" toJunction="J4" end="1560" vehsPerHour="110.90070676036358"/>
  <flow id="JF46020" begin="1500" fromJunction="J4" toJunction="J0" end="1560" vehsPerHour="8.86729363661479"/>
  <flow id="JF46021" begin="1500" fromJunction="J4" toJunction="J2" end="1560" vehsPerHour="32.2769750986166"/>
  <flow id="JF46022" begin="1560" fromJunction="J0" toJunction="J2" end="1620" vehsPerHour="25.32940813322291"/>
  <flow id="JF46023" begin="1560" fromJunction="J0" toJunction="J3" end="1620" vehsPerHour="54.326052418334015"/>
  <flow id="JF46024" begin="1560" fromJunction="J2" toJunction="J3" end="1620" vehsPerHour="95.79606943473425"/>
  <flow id="JF46025" begin="1560" fromJunction="J3" toJunction="J0" end="1620" vehsPerHour="115.93271236015693"/>
  <flow id="JF46026" begin="1560" fromJunction="J3" toJunction="J2" end="1620" vehsPerHour="113.65713516028902"/>
  <flow id="JF46027" begin="1560" fromJunction="J3" toJunction="J4" end="1620" vehsPerHour="119.00327304906983"/>
  <flow id="JF46028" begin="1560" fromJunction="J4" toJunction="J0" end="1620" vehsPerHour="67.05337766727851"/>
  <flow id="JF46029" begin="1560" fromJunction="J4" toJunction="J2" end="1620" vehsPerHour="96.32838672728687"/>
  <flow id="JF46030" begin="1560" fromJunction="J4" toJunction="J3" end="1620" vehsPerHour="28.18045343734645"/>
  <flow id="JF46031" begin="1620" fromJunction="J0" toJunction="J2" end="1680" vehsPerHour="131.53333811718056"/>
  <flow id="JF46032" begin="1620" fromJunction="J0" toJunction="J3" end="1680" vehsPerHour="81.05631470726811"/>
  <flow id="JF46033" begin="1620" fromJunction="J0" toJunction="J4" end="1680" vehsPerHour="48.60210876839327"/>
  <flow id="JF46034" begin="1620" fromJunction="J2" toJunction="J0" end="1680" vehsPerHour="112.03071189040968"/>
  <flow id="JF46035" begin="1620" fromJunction="J2" toJunction="J3" end="1680" vehsPerHour="47.541069503293386"/>
  <flow id="JF46036" begin="1620" fromJunction="J3" toJunction="J0" end="1680" vehsPerHour="30.981921567604736"/>
  <flow id="JF46037" begin="1620" fromJunction="J3" toJunction="J2" end="1680" vehsPerHour="80.8494823438319"/>
  <flow id="JF46038" begin="1620" fromJunction="J3" toJunction="J4" end="1680" vehsPerHour="40.53680188772308"/>
  <flow id="JF46039" begin="1620" fromJunction="J4" toJunction="J0" end="1680" vehsPerHour="39.188117263407456"/>
  <flow id="JF46040" begin="1680" fromJunction="J0" toJunction="J2" end="1740" vehsPerHour="70.26916896446"/>
  <flow id="JF46041" begin="1680" fromJunction="J0" toJunction="J3" end="1740" vehsPerHour="93.80834530868594"/>
  <flow id="JF46042" begin="1680" fromJunction="J2" toJunction="J0" end="1740" vehsPerHour="21.621960989943382"/>
  <flow id="JF46043" begin="1680" fromJunction="J2" toJunction="J3" end="1740" vehsPerHour="87.04062707307209"/>
  <flow id="JF46044" begin="1680" fromJunction="J2" toJunction="J4" end="1740" vehsPerHour="85.5991088132234"/>
  <flow id="JF46045" begin="1680" fromJunction="J3" toJunction="J0" end="1740" vehsPerHour="78.72940631522572"/>
  <flow id="JF46046" begin="1680" fromJunction="J3" toJunction="J2" end="1740" vehsPerHour="68.14936604413694"/>
  <flow id="JF46047" begin="1680" fromJunction="J3" toJunction="J4" end="1740" vehsPerHour="79.74386781779978"/>
  <flow id="JF46048" begin="1680" fromJunction="J4" toJunction="J0" end="1740" vehsPerHour="125.33253984408653"/>
  <flow id="JF46049" begin="1680" fromJunction="J4" toJunction="J2" end="1740" vehsPerHour="2.089195684188183"/>
  <flow id="JF46050" begin="1680" fromJunction="J4" toJunction="J3" end="1740" vehsPerHour="117.48612417940264"/>
  <flow id="JF46051" begin="1740" fromJunction="J0" toJunction="J2" end="1800" vehsPerHour="14.82517749043326"/>
  <flow id="JF46052" begin="1740" fromJunction="J0" toJunction="J4" end="1800" vehsPerHour="106.33753270002083"/>
  <flow id="JF46053" begin="1740" fromJunction="J2" toJunction="J0" end="1800" vehsPerHour="30.11548097478951"/>
  <flow id="JF46054" begin="1740" fromJunction="J2" toJunction="J3" end="1800" vehsPerHour="65.31200388592808"/>
  <flow id="JF46055" begin="1740" fromJunction="J2" toJunction="J4" end="1800" vehsPerHour="26.198178469995167"/>
  <flow id="JF46056" begin="1740" fromJunction="J3" toJunction="J2" end="1800" vehsPerHour="3.9105178235827496"/>
  <flow id="JF46057" begin="1740" fromJunction="J3" toJunction="J4" end="1800" vehsPerHour="110.62893106958609"/>
  <flow id="JF46058" begin="1740" fromJunction="J4" toJunction="J2" end="1800" vehsPerHour="98.48205338930764"/>
  <flow id="JF46059" begin="1740" fromJunction="J4" toJunction="J3" end="1800" vehsPerHour="85.54152533745045"/>
  <flow id="JF46060" begin="1800" fromJunction="J0" toJunction="J2" end="1860" vehsPerHour="77.72416316077603"/>
  <flow id="JF46061" begin="1800" fromJunction="J0" toJunction="J3" end="1860" vehsPerHour="20.146307789082595"/>
  <flow id="JF46062" begin="1800" fromJunction="J0" toJunction="J4" end="1860" vehsPerHour="25.59604274046821"/>
  <flow id="JF46063" begin="1800" fromJunction="J2" toJunction="J0" end="1860" vehsPerHour="114.00811355200797"/>
  <flow id="JF46064" begin="1800" fromJunction="J2" toJunction="J3" end="1860" vehsPerHour="69.37306184810714"/>