<?xml version="1.0" encoding="UTF-8"?>
<routes xmlns:xsi="http://www.w3.org/2001/XMLSchema-instance" xsi:noNamespaceSchemaLocation="http://sumo.dlr.de/xsd/routes_file.xsd">
  <flow id="JF44291" begin="0" fromJunction="J0" toJunction="J2" end="60" vehsPerHour="73.17108306151175"/>
  <flow id="JF44292" begin="0" fromJunction="J0" toJunction="J3" end="60" vehsPerHour="48.490568039545636"/>
  <flow id="JF44293" begin="0" fromJunction="J0" toJunction="J4" end="60" vehsPerHour="28.573864442159113"/>
  <flow id="JF44294" begin="0" fromJunction="J2" toJunction="J3" end="60" vehsPerHour="11.239347814161762"/>
  <flow id="JF44295" begin="0" fromJunction="J2" toJunction="J4" end="60" vehsPerHour="52.42174986614274"/>
  <flow id="JF44296" begin="0" fromJunction="J3" toJunction="J0" end="60" vehsPerHour="41.37394253899617"/>
  <flow id="JF44297" begin="0" fromJunction="J3" toJunction="J4" end="60" vehsPerHour="98.14385676902747"/>
  <flow id="JF44298" begin="0" fromJunction="J4" toJunction="J3" end="60" vehsPerHour="20.180203217033355"/>
  <flow id="JF44299" begin="60" fromJunction="J0" toJunction="J2" end="120" vehsPerHour="130.99998761564407"/>
  <flow id="JF44300" begin="60" fromJunction="J0" toJunction="J3" end="120" vehsPerHour="57.79046190506079"/>
  <flow id="JF44301" begin="60" fromJunction="J2" toJunction="J3" end="120" vehsPerHour="50.986739167577504"/>
  <flow id="JF44302" begin="60" fromJunction="J2" toJunction="J4" end="120" vehsPerHour="46.684476372966806"/>
  <flow id="JF44303" begin="60" fromJunction="J3" toJunction="J0" end="120" vehsPerHour="57.96644303468798"/>
  <flow id="JF44304" begin="60" fromJunction="J3" toJunction="J2" end="120" vehsPerHour="108.68911817901073"/>
  <flow id="JF44305" begin="60" fromJunction="J3" toJunction="J4" end="120" vehsPerHour="32.55286783281942"/>
  <flow id="JF44306" begin="60" fromJunction="J4" toJunction="J2" end="120" vehsPerHour="110.59502215941099"/>
  <flow id="JF44307" begin="120" fromJunction="J0" toJunction="J2" end="180" vehsPerHour="49.067098081497015"/>
  <flow id="JF44308" begin="120" fromJunction="J0" toJunction="J3" end="180" vehsPerHour="76.61513458444196"/>
  <flow id="JF44309" begin="120" fromJunction="J2" toJunction="J4" end="180" vehsPerHour="62.98659093277153"/>
  <flow id="JF44310" begin="120" fromJunction="J3" toJunction="J0" end="180" vehsPerHour="99.89785026531415"/>
  <flow id="JF44311" begin="120" fromJunction="J4" toJunction="J0" end="180" vehsPerHour="76.95966454130125"/>
  <flow id="JF44312" begin="180" fromJunction="J0" toJunction="J2" end="240" vehsPerHour="87.94236951359291"/>
  <flow id="JF44313" begin="180" fromJunction="J0" toJunction="J3" end="240" vehsPerHour="28.318549464009052"/>
  <flow id="JF44314" begin="180" fromJunction="J0" toJunction="J4" end="240" vehsPerHour="71.39334861531778"/>
  <flow id="JF44315" begin="180" fromJunction="J2" toJunction="J0" end="240" vehsPerHour="114.03002285774676"/>
  <flow id="JF44316" begin="180" fromJunction="J2" toJunction="J3" end="240" vehsPerHour="97.15716289365365"/>
  <flow id="JF44317" begin="180" fromJunction="J3" toJunction="J0" end="240" vehsPerHour="130.59201548411727"/>
  <flow id="JF44318" begin="180" fromJunction="J3" toJunction="J2" end="240" vehsPerHour="13.267659177658407"/>
  <flow id="JF44319" begin="180" fromJunction="J3" toJunction="J4" end="240" vehsPerHour="136.6037221957589"/>
  <flow id="JF44320" begin="180" fromJunction="J4" toJunction="J0" end="240" vehsPerHour="2.4299476107632345"/>
  <flow id="JF44321" begin="180" fromJunction="J4" toJunction="J3" end="240" vehsPerHour="105.56979006019479"/>
  <flow id="JF44322" begin="240" fromJunction="J0" toJunction="J2" end="300" vehsPerHour="2.3618534331943564"/>
  <flow id="JF44323" begin="240" fromJunction="J0" toJunction="J4" end="300" vehsPerHour="36.538118360142285"/>
  <flow id="JF44324" begin="240" fromJunction="J2" toJunction="J3" end="300" vehsPerHour="125.95814357663973"/>
  <flow id="JF44325" begin="240" fromJunction="J2" toJunction="J4" end="300" vehsPerHour="71.54054574528833"/>
  <flow id="JF44326" begin="240" fromJunction="J3" toJunction="J2" end="300" vehsPerHour="23.509272698664965"/>
  <flow id="JF44327" begin="240" fromJunction="J3" toJunction="J4" end="300" vehsPerHour="101.23882456492399"/>
  <flow id="JF44328" begin="240" fromJunction="J4" toJunction="J0" end="300" vehsPerHour="69.00816751022806"/>
  <flow id="JF44329" begin="240" fromJunction="J4" toJunction="J2" end="300" vehsPerHour="57.273991327182124"/>
  <flow id="JF44330" begin="240" fromJunction="J4" toJunction="J3" end="300" vehsPerHour="38.70478024816932"/>
  <flow id="JF44331" begin="300" fromJunction="J0" toJunction="J2" end="360" vehsPerHour="72.67687280018687"/>
  <flow id="JF44332" begin="300" fromJunction="J0" toJunction="J4" end="360" vehsPerHour="80.33467872926413"/>
  <flow id="JF44333" begin="300" fromJunction="J2" toJunction="J0" end="360" vehsPerHour="48.34553767098216"/>
  <flow id="JF44334" begin="300" fromJunction="J2" toJunction="J3" end="360" vehsPerHour="129.03642657186066"/>
  <flow id="JF44335" begin="300" fromJunction="J2" toJunction="J4" end="360" vehsPerHour="58.051821316780966"/>
  <flow id="JF44336" begin="300" fromJunction="J3" toJunction="J0" end="360" vehsPerHour="23.596396531282906"/>
  <flow id="JF44337" begin="300" fromJunction="J3" toJunction="J2" end="360" vehsPerHour="53.14541800744733"/>
  <flow id="JF44338" begin="300" fromJunction="J4" toJunction="J0" end="360" vehsPerHour="9.574817687862156"/>
  <flow id="JF44339" begin="300" fromJunction="J4" toJunction="J2" end="360" vehsPerHour="65.40008261527926"/>
  <flow id="JF44340" begin="300" fromJunction="J4" toJunction="J3" end="360" vehsPerHour="60.4969562262749"/>
  <flow id="JF44341" begin="360" fromJunction="J0" toJunction="J2" end="420" vehsPerHour="36.74425427228609"/>
  <flow id="JF44342" begin="360" fromJunction="J0" toJunction="J4" end="420" vehsPerHour="130.64834534532355"/>
  <flow id="JF44343" begin="360" fromJunction="J2" toJunction="J0" end="420" vehsPerHour="35.775214966906006"/>
  <flow id="JF44344" begin="360" fromJunction="J2" toJunction="J4" end="420" vehsPerHour="37.174516439593916"/>
  <flow id="JF44345" begin="360" fromJunction="J3" toJunction="J4" end="420" vehsPerHour="49.31739211272512"/>
  <flow id="JF44346" begin="420" fromJunction="J0" toJunction="J2" end="480" vehsPerHour="34.28067936332123"/>
  <flow id="JF44347" begin="420" fromJunction="J2" toJunction="J4" end="480" vehsPerHour="57.747248195368"/>
  <flow id="JF44348" begin="420" fromJunction="J3" toJunction="J2" end="480" vehsPerHour="94.18353192397858"/>
  <flow id="JF44349" begin="420" fromJunction="J3" toJunction="J4" end="480" vehsPerHour="92.6754631736147"/>
  <flow id="JF44350" begin="420" fromJunction="J4" toJunction="J0" end="480" vehsPerHour="115.10499291323421"/>
  <flow id="JF44351" begin="420" fromJunction="J4" toJunction="J2" end="480" vehsPerHour="26.639533199953362"/>
  <flow id="JF44352" begin="420" fromJunction="J4" toJunction="J3" end="480" vehsPerHour="116.44229759807281"/>
  <flow id="JF44353" begin="480" fromJunction="J0" toJunction="J3" end="540" vehsPerHour="10.50738157499732"/>
  <flow id="JF44354" begin="480" fromJunction="J0" toJunction="J4" end="540" vehsPerHour="52.37576983571662"/>
  <flow id="JF44355" begin="480" fromJunction="J2" toJunction="J0" end="540" vehsPerHour="6.5091360256714825"/>
  <flow id="JF44356" begin="480" fromJunction="J2" toJunction="J3" end="540" vehsPerHour="18.04098741843774"/>
  <flow id="JF44357" begin="480" fromJunction="J2" toJunction="J4" end="540" vehsPerHour="52.00374388623051"/>
  <flow id="JF44358" begin="480" fromJunction="J3" toJunction="J0" end="540" vehsPerHour="62.12316008542745"/>
  <flow id="JF44359" begin="480" fromJunction="J4" toJunction="J0" end="540" vehsPerHour="61.8192040042076"/>
  <flow id="JF44360" begin="480" fromJunction="J4" toJunction="J2" end="540" vehsPerHour="44.07136443469376"/>
  <flow id="JF44361" begin="540" fromJunction="J0" toJunction="J2" end="600" vehsPerHour="100.12742616082096"/>
  <flow id="JF44362" begin="540" fromJunction="J0" toJunction="J3" end="600" vehsPerHour="112.2349345601917"/>
  <flow id="JF44363" begin="540" fromJunction="J0" toJunction="J4" end="600" vehsPerHour="62.541536334865505"/>
  <flow id="JF44364" begin="540" fromJunction="J2" toJunction="J4" end="600" vehsPerHour="131.4232773659998"/>
  <flow id="JF44365" begin="540" fromJunction="J3" toJunction="J0" end="600" vehsPerHour="87.21872067702516"/>
  <flow id="JF44366" begin="540" fromJunction="J3" toJunction="J4" end="600" vehsPerHour="71.03747091277276"/>
  <flow id="JF44367" begin="540" fromJunction="J4" toJunction="J0" end="600" vehsPerHour="68.7086269174903"/>
  <flow id="JF44368" begin="600" fromJunction="J0" toJunction="J4" end="660" vehsPerHour="54.52220051536281"/>
  <flow id="JF44369" begin="600" fromJunction="J2" toJunction="J3" end="660" vehsPerHour="101.3315096982346"/>
  <flow id="JF44370" begin="600" fromJunction="J3" toJunction="J0" end="660" vehsPerHour="85.3723535621455"/>
  <flow id="JF44371" begin="600" fromJunction="J3" toJunction="J2" end="660" vehsPerHour="61.998730032222596"/>
  <flow id="JF44372" begin="600" fromJunction="J3" toJunction="J4" end="660" vehsPerHour="61.69671800051988"/>
  <flow id="JF44373" begin="600" fromJunction="J4" toJunction="J0" end="660" vehsPerHour="135.28243069337753"/>
  <flow id="JF44374" begin="600" fromJunction="J4" toJunction="J2" end="660" vehsPerHour="99.63214017641565"/>
  <flow id="JF44375" begin="600" fromJunction="J4" toJunction="J3" end="660" vehsPerHour="122.86014826338517"/>
  <flow id="JF44376" begin="660" fromJunction="J0" toJunction="J3" end="720" vehsPerHour="39.47636266422569"/>
  <flow id="JF44377" begin="660" fromJunction="J0" toJunction="J4" end="720" vehsPerHour="58.609774587069026"/>
  <flow id="JF44378" begin="660" fromJunction="J2" toJunction="J0" end="720" vehsPerHour="16.31119871568811"/>
  <flow id="JF44379" begin="660" fromJunction="J3" toJunction="J0" end="720" vehsPerHour="74.95231004318198"/>
  <flow id="JF44380" begin="660" fromJunction="J3" toJunction="J2" end="720" vehsPerHour="107.44119130283643"/>
  <flow id="JF44381" begin="660" fromJunction="J4" toJunction="J0" end="720" vehsPerHour="43.59859839528621"/>
  <flow id="JF44382" begin="660" fromJunction="J4" toJunction="J2" end="720" vehsPerHour="13.367074039133724"/>
  <flow id="JF44383" begin="660" fromJunction="J4" toJunction="J3" end="720" vehsPerHour="47.03565020759457"/>
  <flow id="JF44384" begin="720" fromJunction="J0" toJunction="J2" end="780" vehsPerHour="31.44351721183197"/>
  <flow id="JF44385" begin="720" fromJunction="J0" toJunction="J3" end="780" vehsPerHour="129.1960281896828"/>
  <flow id="JF44386" begin="720" fromJunction="J0" toJunction="J4" end="780" vehsPerHour="105.68633981663392"/>
  <flow id="JF44387" begin="720" fromJunction="J2" toJunction="J0" end="780" vehsPerHour="47.61051876081894"/>
  <flow id="JF44388" begin="720" fromJunction="J2" toJunction="J3" end="780" vehsPerHour="33.362409109217"/>
  <flow id="JF44389" begin="720" fromJunction="J2" toJunction="J4" end="780" vehsPerHour="42.53960276100658"/>
  <flow id="JF44390" begin="720" fromJunction="J3" toJunction="J2" end="780" vehsPerHour="116.62893322629809"/>
  <flow id="JF44391" begin="720" fromJunction="J3" toJunction="J4" end="780" vehsPerHour="78.04023597099322"/>
  <flow id="JF44392" begin="720" fromJunction="J4" toJunction="J0" end="780" vehsPerHour="132.9495324154588"/>
  <flow id="JF44393" begin="720" fromJunction="J4" toJunction="J2" end="780" vehsPerHour="19.7995840883531"/>
  <flow id="JF44394" begin="720" fromJunction="J4" toJunction="J3" end="780" vehsPerHour="116.75745726095266"/>
  <flow id="JF44395" begin="780" fromJunction="J0" toJunction="J3" end="840" vehsPerHour="44.63992833578279"/>
  <flow id="JF44396" begin="780" fromJunction="J2" toJunction="J0" end="840" vehsPerHour="36.33353216570496"/>
  <flow id="JF44397" begin="780" fromJunction="J3" toJunction="J0" end="840" vehsPerHour="8.440700462980727"/>
  <flow id="JF44398" begin="780" fromJunction="J3" toJunction="J2" end="840" vehsPerHour="8.45705514709102"/>
  <flow id="JF44399" begin="780" fromJunction="J3" toJunction="J4" end="840" vehsPerHour="83.48649230864147"/>
  <flow id="JF44400" begin="780" fromJunction="J4" toJunction="J0" end="840" vehsPerHour="135.11635167881636"/>
  <flow id="JF44401" begin="780" fromJunction="J4" toJunction="J2" end="840" vehsPerHour="78.57216027530123"/>
  <flow id="JF44402" begin="840" fromJunction="J0" toJunction="J2" end="900" vehsPerHour="78.0365209205183"/>
  <flow id="JF44403" begin="840" fromJunction="J0" toJunction="J3" end="900" vehsPerHour="42.99978658993236"/>
  <flow id="JF44404" begin="840" fromJunction="J2" toJunction="J0" end="900" vehsPerHour="96.16572855872379"/>
  <flow id="JF44405" begin="840" fromJunction="J2" toJunction="J3" end="900" vehsPerHour="121.38040471387653"/>
  <flow id="JF44406" begin="840" fromJunction="J2" toJunction="J4" end="900" vehsPerHour="47.200119530672524"/>
  <flow id="JF44407" begin="840" fromJunction="J3" toJunction="J0" end="900" vehsPerHour="85.38023325875731"/>
  <flow id="JF44408" begin="840" fromJunction="J3" toJunction="J4" end="900" vehsPerHour="61.99576899785412"/>
  <flow id="JF44409" begin="840" fromJunction="J4" toJunction="J0" end="900" vehsPerHour="25.8813082366898"/>
  <flow id="JF44410" begin="840" fromJunction="J4" toJunction="J2" end="900" vehsPerHour="63.87213045753754"/>
  <flow id="JF44411" begin="840" fromJunction="J4" toJunction="J3" end="900" vehsPerHour="72.82984409718027"/>
  <flow id="JF44412" begin="900" fromJunction="J0" toJunction="J3" end="960" vehsPerHour="63.68194677083254"/>
  <flow id="JF44413" begin="900" fromJunction="J0" toJunction="J4" end="960" vehsPerHour="36.35542415676083"/>
  <flow id="JF44414" begin="900" fromJunction="J2" toJunction="J3" end="960" vehsPerHour="14.05659375269571"/>
  <flow id="JF44415" begin="900" fromJunction="J2" toJunction="J4" end="960" vehsPerHour="85.02794591904194"/>
  <flow id="JF44416" begin="900" fromJunction="J3" toJunction="J0" end="960" vehsPerHour="56.37227272924334"/>
  <flow id="JF44417" begin="900" fromJunction="J3" toJunction="J2" end="960" vehsPerHour="67.8820932317297"/>
  <flow id="JF44418" begin="900" fromJunction="J3" toJunction="J4" end="960" vehsPerHour="130.08244575988482"/>
  <flow id="JF44419" begin="900" fromJunction="J4" toJunction="J0" end="960" vehsPerHour="74.59993614031733"/>
  <flow id="JF44420" begin="900" fromJunction="J4" toJunction="J2" end="960" vehsPerHour="26.601728479865635"/>
  <flow id="JF44421" begin="960" fromJunction="J2" toJunction="J0" end="1020" vehsPerHour="30.833106141375197"/>
  <flow id="JF44422" begin="960" fromJunction="J2" toJunction="J3" end="1020" vehsPerHour="129.46752978345143"/>
  <flow id="JF44423" begin="960" fromJunction="J2" toJunction="J4" end="1020" vehsPerHour="36.80628592131088"/>
  <flow id="JF44424" begin="960" fromJunction="J3" toJunction="J0" end="1020" vehsPerHour="115.86624997723958"/>
  <flow id="JF44425" begin="960" fromJunction="J3" toJunction="J2" end="1020" vehsPerHour="4.593543748857084"/>
  <flow id="JF44426" begin="960" fromJunction="J3" toJunction="J4" end="1020" vehsPerHour="112.97931037879475"/>
  <flow id="JF44427" begin="960" fromJunction="J4" toJunction="J0" end="1020" vehsPerHour="52.55222910793034"/>
  <flow id="JF44428" begin="960" fromJunction="J4" toJunction="J2" end="1020" vehsPerHour="115.60664008999437"/>
  <flow id="JF44429" begin="960" fromJunction="J4" toJunction="J3" end="1020" vehsPerHour="122.37887183147151"/>
  <flow id="JF44430" begin="1020" fromJunction="J0" toJunction="J4" end="1080" vehsPerHour="131.44427601024424"/>
  <flow id="JF44431" begin="1020" fromJunction="J2" toJunction="J0" end="1080" vehsPerHour="99.55747919227962"/>
  <flow id="JF44432" begin="1020" fromJunction="J2" toJunction="J3" end="1080" vehsPerHour="17.056336222586474"/>
  <flow id="JF44433" begin="1020" fromJunction="J3" toJunction="J0" end="1080" vehsPerHour="94.27376333957363"/>
  <flow id="JF44434" begin="1020" fromJunction="J3" toJunction="J4" end="1080" vehsPerHour="65.31774604786769"/>
  <flow id="JF44435" begin="1020" fromJunction="J4" toJunction="J0" end="1080" vehsPerHour="72.23809206759675"/>
  <flow id="JF44436" begin="1020" fromJunction="J4" toJunction="J2" end="1080" vehsPerHour="71.8902290133101"/>
  <flow id="JF44437" begin="1020" fromJunction="J4" toJunction="J3" end="1080" vehsPerHour="86.39812732128664"/>
  <flow id="JF44438" begin="1080" fromJunction="J0" toJunction="J2" end="1140" vehsPerHour="132.134691445246"/>
  <flow id="JF44439" begin="1080" fromJunction="J0" toJunction="J3" end="1140" vehsPerHour="37.2050190836689"/>
  <flow id="JF44440" begin="1080" fromJunction="J2" toJunction="J0" end="1140" vehsPerHour="55.82843707652826"/>
  <flow id="JF44441" begin="1080" fromJunction="J2" toJunction="J3" end="1140" vehsPerHour="110.23049833716595"/>
  <flow id="JF44442" begin="1080" fromJunction="J2" toJunction="J4" end="1140" vehsPerHour="98.22159859403573"/>
  <flow id="JF44443" begin="1080" fromJunction="J3" toJunction="J0" end="1140" vehsPerHour="73.8888099765357"/>
  <flow id="JF44444" begin="1080" fromJunction="J3" toJunction="J2" end="1140" vehsPerHour="104.64637397727004"/>
  <flow id="JF44445" begin="1080" fromJunction="J4" toJunction="J0" end="1140" vehsPerHour="69.50797139067974"/>
  <flow id="JF44446" begin="1080" fromJunction="J4" toJunction="J2" end="1140" vehsPerHour="63.86843680178258"/>
  <flow id="JF44447" begin="1080" fromJunction="J4" toJunction="J3" end="1140" vehsPerHour="10.491659979020605"/>
  <flow id="JF44448" begin="1140" fromJunction="J0" toJunction="J2" end="1200" vehsPerHour="117.67002931246124"/>
  <flow id="JF44449" begin="1140" fromJunction="J2" toJunction="J3" end="1200" vehsPerHour="129.35293031452096"/>
  <flow id="JF44450" begin="1140" fromJunction="J2" toJunction="J4" end="1200" vehsPerHour="55.41323186222462"/>
  <flow id="JF44451" begin="1140" fromJunction="J3" toJunction="J2" end="1200" vehsPerHour="93.83127327347276"/>
  <flow id="JF44452" begin="1140" fromJunction="J4" toJunction="J0" end="1200" vehsPerHour="113.57597386695542"/>
  <flow id="JF44453" begin="1140" fromJunction="J4" toJunction="J2" end="1200" vehsPerHour="14.94975215483973"/>
  <flow id="JF44454" begin="1200" fromJunction="J0" toJunction="J2" end="1260" vehsPerHour="66.13960616885117"/>
  <flow id="JF44455" begin="1200" fromJunction="J0" toJunction="J4" end="1260" vehsPerHour="14.54035647419837"/>
  <flow id="JF44456" begin="1200" fromJunction="J2" toJunction="J0" end="1260" vehsPerHour="56.4995023838141"/>
  <flow id="JF44457" begin="1200" fromJunction="J2" toJunction="J3" end="1260" vehsPerHour="75.10062036462956"/>
  <flow id="JF44458" begin="1200" fromJunction="J2" toJunction="J4" end="1260" vehsPerHour="18.3784447092321"/>
  <flow id="JF44459" begin="1200" fromJunction="J4" toJunction="J0" end="1260" vehsPerHour="9.57628240655109"/>
  <flow id="JF44460" begin="1200" fromJunction="J4" toJunction="J3" end="1260" vehsPerHour="23.954923440499584"/>
  <flow id="JF44461" begin="1260" fromJunction="J0" toJunction="J2" end="1320" vehsPerHour="129.41563669132245"/>
  <flow id="JF44462" begin="1260" fromJunction="J0" toJunction="J3" end="1320" vehsPerHour="42.03076108646361"/>
  <flow id="JF44463" begin="1260" fromJunction="J0" toJunction="J4" end="1320" vehsPerHour="129.69608825269498"/>
  <flow id="JF44464" begin="1260" fromJunction="J2" toJunction="J3" end="1320" vehsPerHour="42.61896038055221"/>
  <flow id="JF44465" begin="1260" fromJunction="J2" toJunction="J4" end="1320" vehsPerHour="125.74535030995268"/>
  <flow id="JF44466" begin="1260" fromJunction="J3" toJunction="J0" end="1320" vehsPerHour="82.1702871924356"/>
  <flow id="JF44467" begin="1260" fromJunction="J3" toJunction="J2" end="1320" vehsPerHour="124.73262094378593"/>
  <flow id="JF44468" begin="1260" fromJunction="J3" toJunction="J4" end="1320" vehsPerHour="96.79976555997206"/>
  <flow id="JF44469" begin="1260" fromJunction="J4" toJunction="J0" end="1320" vehsPerHour="88.77304817454223"/>
  <flow id="JF44470" begin="1260" fromJunction="J4" toJunction="J2" end="1320" vehsPerHour="74.8921227274865"/>
  <flow id="JF44471" begin="1260" fromJunction="J4" toJunction="J3" end="1320" vehsPerHour="1.2019569037381803"/>
  <flow id="JF44472" begin="1320" fromJunction="J0" toJunction="J2" end="1380" vehsPerHour="46.394265329310045"/>
  <flow id="JF44473" begin="1320" fromJunction="J0" toJunction="J3" end="1380" vehsPerHour="52.688435716352"/>
  <flow id="JF44474" begin="1320" fromJunction="J0" toJunction="J4" end="1380" vehsPerHour="73.94612633702494"/>
  <flow id="JF44475" begin="1320" fromJunction="J2" toJunction="J3" end="1380" vehsPerHour="49.26716926373891"/>
  <flow id="JF44476" begin="1320" fromJunction="J2" toJunction="J4" end="1380" vehsPerHour="135.39132334609192"/>
  <flow id="JF44477" begin="1320" fromJunction="J3" toJunction="J2" end="1380" vehsPerHour="37.863062186792924"/>
  <flow id="JF44478" begin="1320" fromJunction="J3" toJunction="J4" end="1380" vehsPerHour="1.796309414629527"/>
  <flow id="JF44479" begin="1320" fromJunction="J4" toJunction="J0" end="1380" vehsPerHour="11.438796560668793"/>
  <flow id="JF44480" begin="1320" fromJunction="J4" toJunction="J2" end="1380" vehsPerHour="74.3468223615222"/>
  <flow id="JF44481" begin="1320" fromJunction="J4" toJunction="J3" end="1380" vehsPerHour="85.14228066883986"/>
  <flow id="JF44482" begin="1380" fromJunction="J0" toJunction="J2" end="1440" vehsPerHour="4.053999225316818"/>
  <flow id="JF44483" begin="1380" fromJunction="J0" toJunction="J4" end="1440" vehsPerHour="42.28933098329467"/>
  <flow id="JF44484" begin="1380" fromJunction="J2" toJunction="J0" end="1440" vehsPerHour="61.5996621765678"/>
  <flow id="JF44485" begin="1380" fromJunction="J2" toJunction="J4" end="1440" vehsPerHour="81.60566032750644"/>
  <flow id="JF44486" begin="1380" fromJunction="J3" toJunction="J4" end="1440" vehsPerHour="15.17771444291986"/>
  <flow id="JF44487" begin="1380" fromJunction="J4" toJunction="J0" end="1440" vehsPerHour="36.30035916494746"/>
  <flow id="JF44488" begin="1380" fromJunction="J4" toJunction="J2" end="1440" vehsPerHour="82.6412879825945"/>
  <flow id="JF44489" begin="1380" fromJunction="J4" toJunction="J3" end="1440" vehsPerHour="42.35875188421567"/>
  <flow id="JF44490" begin="1440" fromJunction="J0" toJunction="J3" end="1500" vehsPerHour="121.5939240740543"/>
  <flow id="JF44491" begin="1440" fromJunction="J0" toJunction="J4" end="1500" vehsPerHour="76.70470897059522"/>
  <flow id="JF44492" begin="1440" fromJunction="J2" toJunction="J0" end="1500" vehsPerHour="27.493417771534975"/>
  <flow id="JF44493" begin="1440" fromJunction="J2" toJunction="J3" end="1500" vehsPerHour="19.647065250278064"/>
  <flow id="JF44494" begin="1440" fromJunction="J3" toJunction="J2" end="1500" vehsPerHour="48.890291677799894"/>
  <flow id="JF44495" begin="1440" fromJunction="J3" toJunction="J4" end="1500" vehsPerHour="122.51433809783947"/>
  <flow id="JF44496" begin="1440" fromJunction="J4" toJunction="J0" end="1500" vehsPerHour="24.76593823450364"/>
  <flow id="JF44497" begin="1440" fromJunction="J4" toJunction="J2" end="1500" vehsPerHour="108.20102025357168"/>
  <flow id="JF44498" begin="1500" fromJunction="J0" toJunction="J2" end="1560" vehsPerHour="10.983514117259352"/>
  <flow id="JF44499" begin="1500" fromJunction="J0" toJunction="J3" end="1560" vehsPerHour="117.99607458459639"/>
  <flow id="JF44500" begin="1500" fromJunction="J2" toJunction="J0" end="1560" vehsPerHour="113.39155845674259"/>
  <flow id="JF44501" begin="1500" fromJunction="J2" toJunction="J3" end="1560" vehsPerHour="95.91972949126652"/>
  <flow id="JF44502" begin="1500" fromJunction="J2" toJunction="J4" end="1560" vehsPerHour="113.38702317312587"/>
  <flow id="JF44503" begin="1500" fromJunction="J3" toJunction="J0" end="1560" vehsPerHour="27.951603629995866"/>
  <flow id="JF44504" begin="1500" fromJunction="J3" toJunction="J4" end="1560" vehsPerHour="110.08963442425586"/>
  <flow id="JF44505" begin="1500" fromJunction="J4" toJunction="J0" end="1560" vehsPerHour="10.117861941253473"/>
  <flow id="JF44506" begin="1500" fromJunction="J4" toJunction="J3" end="1560" vehsPerHour="72.68543168813495"/>
  <flow id="JF44507" begin="1560" fromJunction="J0" toJunction="J2" end="1620" vehsPerHour="119.4716314258982"/>
  <flow id="JF44508" begin="1560" fromJunction="J0" toJunction="J3" end="1620" vehsPerHour="126.4362879878361"/>
  <flow id="JF44509" begin="1560" fromJunction="J0" toJunction="J4" end="1620" vehsPerHour="18.209147818573847"/>
  <flow id="JF44510" begin="1560" fromJunction="J2" toJunction="J3" end="1620" vehsPerHour="12.729693158920522"/>
  <flow id="JF44511" begin="1560" fromJunction="J2" toJunction="J4" end="1620" vehsPerHour="83.70303277891722"/>
  <flow id="JF44512" begin="1560" fromJunction="J3" toJunction="J0" end="1620" vehsPerHour="36.373983269152134"/>
  <flow id="JF44513" begin="1560" fromJunction="J3" toJunction="J4" end="1620" vehsPerHour="88.54449325314171"/>
  <flow id="JF44514" begin="1560" fromJunction="J4" toJunction="J0" end="1620" vehsPerHour="64.36797550076783"/>
  <flow id="JF44515" begin="1620" fromJunction="J0" toJunction="J2" end="1680" vehsPerHour="58.32252843522053"/>
  <flow id="JF44516" begin="1620" fromJunction="J0" toJunction="J3" end="1680" vehsPerHour="84.69869992835352"/>
  <flow id="JF44517" begin="1620" fromJunction="J0" toJunction="J4" end="1680" vehsPerHour="87.13898428665321"/>
  <flow id="JF44518" begin="1620" fromJunction="J2" toJunction="J0" end="1680" vehsPerHour="112.90671695272377"/>
  <flow id="JF44519" begin="1620" fromJunction="J2" toJunction="J3" end="1680" vehsPerHour="84.35362449498587"/>
  <flow id="JF44520" begin="1620" fromJunction="J2" toJunction="J4" end="1680" vehsPerHour="45.51690283072072"/>
  <flow id="JF44521" begin="1620" fromJunction="J3" toJunction="J2" end="1680" vehsPerHour="2.2643565712174145"/>
  <flow id="JF44522" begin="1620" fromJunction="J4" toJunction="J0" end="1680" vehsPerHour="94.99273422195029"/>
  <flow id="JF44523" begin="1620" fromJunction="J4" toJunction="J2" end="1680" vehsPerHour="61.89737567028446"/>
  <flow id="JF44524" begin="1620" fromJunction="J4" toJunction="J3" end="1680" vehsPerHour="22.491448170412944"/>
  <flow id="JF44525" begin="1680" fromJunction="J0" toJunction="J3" end="1740" vehsPerHour="34.93976085270789"/>
  <flow id="JF44526" begin="1680" fromJunction="J2" toJunction="J3" end="1740" vehsPerHour="89.12322445905356"/>
  <flow id="JF44527" begin="1680" fromJunction="J2" toJunction="J4" end="1740" vehsPerHour="99.68443669432791"/>
  <flow id="JF44528" begin="1680" fromJunction="J3" toJunction="J0" end="1740" vehsPerHour="26.857402476577484"/>
  <flow id="JF44529" begin="1680" fromJunction="J3" toJunction="J4" end="1740" vehsPerHour="47.23906835682158"/>
  <flow id="JF44530" begin="1680" fromJunction="J4" toJunction="J0" end="1740" vehsPerHour="31.035782797713185"/>
  <flow id="JF44531" begin="1680" fromJunction="J4" toJunction="J3" end="1740" vehsPerHour="125.1816870125699"/>
  <flow id="JF44532" begin="1740" fromJunction="J0" toJunction="J2" end="1800" vehsPerHour="95.25733370439573"/>
  <flow id="JF44533" begin="1740" fromJunction="J0" toJunction="J3" end="1800" vehsPerHour="48.43738339172708"/>
  <flow id="JF44534" begin="1740" fromJunction="J2" toJunction="J0" end="1800" vehsPerHour="26.12756148013206"/>
  <flow id="JF44535" begin="1740" fromJunction="J2" toJunction="J3" end="1800" vehsPerHour="73.81248910978759"/>
  <flow id="JF44536" begin="1740" fromJunction="J2" toJunction="J4" end="1800" vehsPerHour="50.20855995228534"/>
  <flow id="JF44537" begin="1740" fromJunction="J3" toJunction="J4" end="1800" vehsPerHour="129.7888449646744"/>
  <flow id="JF44538" begin="1740" fromJunction="J4" toJunction="J2" end="1800" vehsPerHour="19.596562055275733"/>
  <flow id="JF44539" begin="1740" fromJunction="J4" toJunction="J3" end="1800" vehsPerHour="67.6435603303474"/>
  <flow id="JF44540" begin="1800" fromJunction="J0" toJunction="J3" end="1860" vehsPerHour="0.6988163753827011"/>
  <flow id="JF44541" begin="1800" fromJunction="J0" toJunction="J4" end="1860" vehsPerHour="53.28120632588037"/>
  <flow id="JF44542" begin="1800" fromJunction="J2" toJunction="J0" end="1860" vehsPerHour="82.41137702088682"/>
  <flow id="JF44543" begin="1800" fromJunction="J2" toJunction="J3" end="1860" vehsPerHour="0.1428893739641467"/>
  <flow id="JF44544" begin="1800" fromJunction="J2" toJunction="J4" end="1860" vehsPerHour="113.9416446454165"/>
  <flow id="JF44545" begin="1800" fromJunction="J3" toJunction="J2" end="1860" vehsPerHour="64.3525306484361"/>
  <flow id="JF44546" begin="1800" fromJunction="J3" toJunction="J4" end="1860" vehsPerHour="46.33497560181209"/>
  <flow id="JF44547" begin="1800" fromJunction="J4" toJunction="J0" end="1860" vehsPerHour="31.899823165958324"/>
  <flow id="JF44548" begin="1800" fromJunction="J4" toJunction="J2" end="1860" vehsPerHour="36.61833038100402"/>
  <flow id="JF44549" begin="1860" fromJunction="J0" toJunction="J2" end="1920" vehsPerHour="84.16483245423917"/>
  <flow id="JF44550" begin="1860" fromJunction="J0" toJunction="J4" end="1920" vehsPerHour="39.519502857368465"/>
  <flow id="JF44551" begin="1860" fromJunction="J2" toJunction="J0" end="1920" vehsPerHour="56.53072740599542"/>
  <flow id="JF44552" begin="1860" fromJunction="J2" toJunction="J4" end="1920" vehsPerHour="64.82720116358892"/>
  <flow id="JF44553" begin="1860" fromJunction="J3" toJunction="J4" end="1920" vehsPerHour="117.51665253799617"/>
  <flow id="JF44554" begin="1860" fromJunction="J4" toJunction="J0" end="1920" vehsPerHour="75.07476573633889"/>
  <flow id="JF44555" begin="1860" fromJunction="J4" toJunction="J2" end="1920" vehsPerHour="27.55333238717146"/>
  <flow id="JF44556" begin="1860" fromJunction="J4" toJunction="J3" end="1920" vehsPerHour="134.49317421663156"/>