<?xml version="1.0" encoding="UTF-8"?>
<routes xmlns:xsi="http://www.w3.org/2001/XMLSchema-instance" xsi:noNamespaceSchemaLocation="http://sumo.dlr.de/xsd/routes_file.xsd">
  <flow id="JF48927" begin="0" fromJunction="J0" toJunction="J2" end="60" vehsPerHour="45.568533872155236"/>
  <flow id="JF48928" begin="0" fromJunction="J0" toJunction="J3" end="60" vehsPerHour="92.55185473984915"/>
  <flow id="JF48929" begin="0" fromJunction="J0" toJunction="J4" end="60" vehsPerHour="80.08356160350003"/>
  <flow id="JF48930" begin="0" fromJunction="J2" toJunction="J3" end="60" vehsPerHour="8.87596021040216"/>
  <flow id="JF48931" begin="0" fromJunction="J2" toJunction="J4" end="60" vehsPerHour="24.326824961005187"/>
  <flow id="JF48932" begin="0" fromJunction="J3" toJunction="J0" end="60" vehsPerHour="68.44294936125135"/>
  <flow id="JF48933" begin="0" fromJunction="J3" toJunction="J4" end="60" vehsPerHour="2.443113412962962"/>
  <flow id="JF48934" begin="0" fromJunction="J4" toJunction="J0" end="60" vehsPerHour="54.5470768750781"/>
  <flow id="JF48935" begin="0" fromJunction="J4" toJunction="J2" end="60" vehsPerHour="23.915667131057404"/>
  <flow id="JF48936" begin="60" fromJunction="J0" toJunction="J4" end="120" vehsPerHour="35.93891324620374"/>
  <flow id="JF48937" begin="60" fromJunction="J2" toJunction="J0" end="120" vehsPerHour="137.3107994836593"/>
  <flow id="JF48938" begin="60" fromJunction="J2" toJunction="J4" end="120" vehsPerHour="27.534600548891362"/>
  <flow id="JF48939" begin="60" fromJunction="J3" toJunction="J0" end="120" vehsPerHour="50.919367907028764"/>
  <flow id="JF48940" begin="60" fromJunction="J3" toJunction="J2" end="120" vehsPerHour="75.92047879708478"/>
  <flow id="JF48941" begin="120" fromJunction="J0" toJunction="J2" end="180" vehsPerHour="94.00948933571988"/>
  <flow id="JF48942" begin="120" fromJunction="J0" toJunction="J3" end="180" vehsPerHour="117.01384368264165"/>
  <flow id="JF48943" begin="120" fromJunction="J2" toJunction="J0" end="180" vehsPerHour="101.89526062411919"/>
  <flow id="JF48944" begin="120" fromJunction="J2" toJunction="J3" end="180" vehsPerHour="21.21435999486087"/>
  <flow id="JF48945" begin="120" fromJunction="J2" toJunction="J4" end="180" vehsPerHour="86.47780128332148"/>
  <flow id="JF48946" begin="120" fromJunction="J3" toJunction="J0" end="180" vehsPerHour="87.66946572790748"/>
  <flow id="JF48947" begin="120" fromJunction="J3" toJunction="J2" end="180" vehsPerHour="9.708483261703654"/>
  <flow id="JF48948" begin="120" fromJunction="J4" toJunction="J0" end="180" vehsPerHour="87.7234670715775"/>
  <flow id="JF48949" begin="120" fromJunction="J4" toJunction="J2" end="180" vehsPerHour="64.6963872103833"/>
  <flow id="JF48950" begin="120" fromJunction="J4" toJunction="J3" end="180" vehsPerHour="96.48900226250964"/>
  <flow id="JF48951" begin="180" fromJunction="J0" toJunction="J2" end="240" vehsPerHour="62.29573226107438"/>
  <flow id="JF48952" begin="180" fromJunction="J0" toJunction="J3" end="240" vehsPerHour="41.31675187964212"/>
  <flow id="JF48953" begin="180" fromJunction="J0" toJunction="J4" end="240" vehsPerHour="47.14817806783281"/>
  <flow id="JF48954" begin="180" fromJunction="J2" toJunction="J0" end="240" vehsPerHour="113.71094506970334"/>
  <flow id="JF48955" begin="180" fromJunction="J2" toJunction="J4" end="240" vehsPerHour="120.05413877726147"/>
  <flow id="JF48956" begin="180" fromJunction="J3" toJunction="J0" end="240" vehsPerHour="78.30984889351522"/>
  <flow id="JF48957" begin="180" fromJunction="J3" toJunction="J2" end="240" vehsPerHour="7.610581104592054"/>
  <flow id="JF48958" begin="180" fromJunction="J4" toJunction="J0" end="240" vehsPerHour="86.45745205092376"/>
  <flow id="JF48959" begin="180" fromJunction="J4" toJunction="J3" end="240" vehsPerHour="51.304565646324825"/>
  <flow id="JF48960" begin="240" fromJunction="J0" toJunction="J2" end="300" vehsPerHour="101.97587375674212"/>
  <flow id="JF48961" begin="240" fromJunction="J2" toJunction="J0" end="300" vehsPerHour="24.25756851689917"/>
  <flow id="JF48962" begin="240" fromJunction="J2" toJunction="J3" end="300" vehsPerHour="99.86587498919761"/>
  <flow id="JF48963" begin="240" fromJunction="J3" toJunction="J0" end="300" vehsPerHour="96.49959071890207"/>
  <flow id="JF48964" begin="300" fromJunction="J0" toJunction="J2" end="360" vehsPerHour="6.4580837995493425"/>
  <flow id="JF48965" begin="300" fromJunction="J0" toJunction="J3" end="360" vehsPerHour="37.2498112514034"/>
  <flow id="JF48966" begin="300" fromJunction="J2" toJunction="J3" end="360" vehsPerHour="117.72561567023718"/>
  <flow id="JF48967" begin="300" fromJunction="J3" toJunction="J2" end="360" vehsPerHour="94.82218014799422"/>
  <flow id="JF48968" begin="300" fromJunction="J3" toJunction="J4" end="360" vehsPerHour="98.68582813416366"/>
  <flow id="JF48969" begin="300" fromJunction="J4" toJunction="J0" end="360" vehsPerHour="40.256269887884265"/>
  <flow id="JF48970" begin="300" fromJunction="J4" toJunction="J2" end="360" vehsPerHour="46.22663909346711"/>
  <flow id="JF48971" begin="360" fromJunction="J0" toJunction="J2" end="420" vehsPerHour="48.60348574459837"/>
  <flow id="JF48972" begin="360" fromJunction="J0" toJunction="J3" end="420" vehsPerHour="70.02649951619529"/>
  <flow id="JF48973" begin="360" fromJunction="J2" toJunction="J0" end="420" vehsPerHour="92.89128625110702"/>
  <flow id="JF48974" begin="360" fromJunction="J2" toJunction="J3" end="420" vehsPerHour="95.04396067658547"/>
  <flow id="JF48975" begin="360" fromJunction="J2" toJunction="J4" end="420" vehsPerHour="59.07597447849141"/>
  <flow id="JF48976" begin="360" fromJunction="J3" toJunction="J0" end="420" vehsPerHour="13.001064205037302"/>
  <flow id="JF48977" begin="360" fromJunction="J3" toJunction="J2" end="420" vehsPerHour="134.29913079130137"/>
  <flow id="JF48978" begin="360" fromJunction="J3" toJunction="J4" end="420" vehsPerHour="117.15076259903446"/>
  <flow id="JF48979" begin="360" fromJunction="J4" toJunction="J0" end="420" vehsPerHour="12.562773236704835"/>
  <flow id="JF48980" begin="420" fromJunction="J0" toJunction="J2" end="480" vehsPerHour="124.30007368806739"/>
  <flow id="JF48981" begin="420" fromJunction="J0" toJunction="J3" end="480" vehsPerHour="87.41596491813807"/>
  <flow id="JF48982" begin="420" fromJunction="J0" toJunction="J4" end="480" vehsPerHour="130.64496496486626"/>
  <flow id="JF48983" begin="420" fromJunction="J2" toJunction="J0" end="480" vehsPerHour="94.18861694619727"/>
  <flow id="JF48984" begin="420" fromJunction="J2" toJunction="J3" end="480" vehsPerHour="78.53826853377223"/>
  <flow id="JF48985" begin="420" fromJunction="J2" toJunction="J4" end="480" vehsPerHour="2.9752623520063177"/>
  <flow id="JF48986" begin="420" fromJunction="J3" toJunction="J0" end="480" vehsPerHour="108.84125117781116"/>
  <flow id="JF48987" begin="420" fromJunction="J3" toJunction="J2" end="480" vehsPerHour="43.939151391174086"/>
  <flow id="JF48988" begin="420" fromJunction="J3" toJunction="J4" end="480" vehsPerHour="11.713079695528645"/>
  <flow id="JF48989" begin="420" fromJunction="J4" toJunction="J0" end="480" vehsPerHour="98.11267757310179"/>
  <flow id="JF48990" begin="420" fromJunction="J4" toJunction="J2" end="480" vehsPerHour="99.95947419829031"/>
  <flow id="JF48991" begin="420" fromJunction="J4" toJunction="J3" end="480" vehsPerHour="133.90524532626594"/>
  <flow id="JF48992" begin="480" fromJunction="J0" toJunction="J2" end="540" vehsPerHour="32.049799523788565"/>
  <flow id="JF48993" begin="480" fromJunction="J0" toJunction="J4" end="540" vehsPerHour="42.76492297345069"/>
  <flow id="JF48994" begin="480" fromJunction="J2" toJunction="J0" end="540" vehsPerHour="62.76952945332435"/>
  <flow id="JF48995" begin="480" fromJunction="J2" toJunction="J3" end="540" vehsPerHour="67.25876035540587"/>
  <flow id="JF48996" begin="480" fromJunction="J2" toJunction="J4" end="540" vehsPerHour="98.14279960245923"/>
  <flow id="JF48997" begin="480" fromJunction="J3" toJunction="J0" end="540" vehsPerHour="54.65735056242513"/>
  <flow id="JF48998" begin="480" fromJunction="J3" toJunction="J2" end="540" vehsPerHour="36.10896380550031"/>
  <flow id="JF48999" begin="480" fromJunction="J4" toJunction="J3" end="540" vehsPerHour="22.521653403202702"/>
  <flow id="JF49000" begin="540" fromJunction="J0" toJunction="J2" end="600" vehsPerHour="10.99950641505108"/>
  <flow id="JF49001" begin="540" fromJunction="J0" toJunction="J3" end="600" vehsPerHour="46.923868786058485"/>
  <flow id="JF49002" begin="540" fromJunction="J0" toJunction="J4" end="600" vehsPerHour="133.74871596313582"/>
  <flow id="JF49003" begin="540" fromJunction="J2" toJunction="J3" end="600" vehsPerHour="76.72300865922028"/>
  <flow id="JF49004" begin="540" fromJunction="J2" toJunction="J4" end="600" vehsPerHour="75.72639334185"/>
  <flow id="JF49005" begin="540" fromJunction="J3" toJunction="J0" end="600" vehsPerHour="11.407938870357961"/>
  <flow id="JF49006" begin="540" fromJunction="J3" toJunction="J2" end="600" vehsPerHour="102.18155853061747"/>
  <flow id="JF49007" begin="540" fromJunction="J3" toJunction="J4" end="600" vehsPerHour="108.248829970291"/>
  <flow id="JF49008" begin="540" fromJunction="J4" toJunction="J0" end="600" vehsPerHour="135.3150129659419"/>
  <flow id="JF49009" begin="540" fromJunction="J4" toJunction="J2" end="600" vehsPerHour="17.218862858488293"/>
  <flow id="JF49010" begin="600" fromJunction="J0" toJunction="J2" end="660" vehsPerHour="135.1644383560328"/>
  <flow id="JF49011" begin="600" fromJunction="J0" toJunction="J3" end="660" vehsPerHour="27.90705555510593"/>
  <flow id="JF49012" begin="600" fromJunction="J2" toJunction="J3" end="660" vehsPerHour="74.4208500119384"/>
  <flow id="JF49013" begin="600" fromJunction="J2" toJunction="J4" end="660" vehsPerHour="24.29034408241108"/>
  <flow id="JF49014" begin="600" fromJunction="J3" toJunction="J4" end="660" vehsPerHour="111.2337892877031"/>
  <flow id="JF49015" begin="600" fromJunction="J4" toJunction="J0" end="660" vehsPerHour="112.21413747427492"/>
  <flow id="JF49016" begin="600" fromJunction="J4" toJunction="J2" end="660" vehsPerHour="86.47692683215328"/>
  <flow id="JF49017" begin="600" fromJunction="J4" toJunction="J3" end="660" vehsPerHour="46.97352203537856"/>
  <flow id="JF49018" begin="660" fromJunction="J0" toJunction="J2" end="720" vehsPerHour="58.07215341343297"/>
  <flow id="JF49019" begin="660" fromJunction="J0" toJunction="J4" end="720" vehsPerHour="67.02442066469087"/>
  <flow id="JF49020" begin="660" fromJunction="J2" toJunction="J0" end="720" vehsPerHour="53.16161277832337"/>
  <flow id="JF49021" begin="660" fromJunction="J2" toJunction="J4" end="720" vehsPerHour="24.231313830479618"/>
  <flow id="JF49022" begin="660" fromJunction="J3" toJunction="J0" end="720" vehsPerHour="34.7111245463284"/>
  <flow id="JF49023" begin="660" fromJunction="J3" toJunction="J2" end="720" vehsPerHour="40.078074857134446"/>
  <flow id="JF49024" begin="660" fromJunction="J4" toJunction="J0" end="720" vehsPerHour="100.63580310876748"/>
  <flow id="JF49025" begin="660" fromJunction="J4" toJunction="J2" end="720" vehsPerHour="71.3692477165945"/>
  <flow id="JF49026" begin="660" fromJunction="J4" toJunction="J3" end="720" vehsPerHour="78.20060313670736"/>
  <flow id="JF49027" begin="720" fromJunction="J0" toJunction="J2" end="780" vehsPerHour="103.85318703433218"/>
  <flow id="JF49028" begin="720" fromJunction="J0" toJunction="J3" end="780" vehsPerHour="51.50876220292658"/>
  <flow id="JF49029" begin="720" fromJunction="J0" toJunction="J4" end="780" vehsPerHour="89.48233882207134"/>
  <flow id="JF49030" begin="720" fromJunction="J2" toJunction="J0" end="780" vehsPerHour="106.38229613093941"/>
  <flow id="JF49031" begin="720" fromJunction="J2" toJunction="J3" end="780" vehsPerHour="39.88079418782956"/>
  <flow id="JF49032" begin="720" fromJunction="J2" toJunction="J4" end="780" vehsPerHour="108.80600563081761"/>
  <flow id="JF49033" begin="720" fromJunction="J3" toJunction="J2" end="780" vehsPerHour="50.81480447692175"/>
  <flow id="JF49034" begin="720" fromJunction="J3" toJunction="J4" end="780" vehsPerHour="133.6593820840236"/>
  <flow id="JF49035" begin="720" fromJunction="J4" toJunction="J0" end="780" vehsPerHour="78.23530548113612"/>
  <flow id="JF49036" begin="720" fromJunction="J4" toJunction="J2" end="780" vehsPerHour="64.29463029509053"/>
  <flow id="JF49037" begin="780" fromJunction="J0" toJunction="J2" end="840" vehsPerHour="97.99333339183515"/>
  <flow id="JF49038" begin="780" fromJunction="J0" toJunction="J4" end="840" vehsPerHour="131.05219691301482"/>
  <flow id="JF49039" begin="780" fromJunction="J2" toJunction="J0" end="840" vehsPerHour="72.58630540538636"/>
  <flow id="JF49040" begin="780" fromJunction="J2" toJunction="J3" end="840" vehsPerHour="115.71134440644818"/>
  <flow id="JF49041" begin="780" fromJunction="J2" toJunction="J4" end="840" vehsPerHour="133.33558326892347"/>
  <flow id="JF49042" begin="780" fromJunction="J4" toJunction="J2" end="840" vehsPerHour="18.90739357717521"/>
  <flow id="JF49043" begin="780" fromJunction="J4" toJunction="J3" end="840" vehsPerHour="39.69409610853723"/>
  <flow id="JF49044" begin="840" fromJunction="J0" toJunction="J2" end="900" vehsPerHour="21.491797909946367"/>
  <flow id="JF49045" begin="840" fromJunction="J0" toJunction="J3" end="900" vehsPerHour="26.214865042408764"/>
  <flow id="JF49046" begin="840" fromJunction="J0" toJunction="J4" end="900" vehsPerHour="137.36636709747683"/>
  <flow id="JF49047" begin="840" fromJunction="J2" toJunction="J0" end="900" vehsPerHour="129.26946922894888"/>
  <flow id="JF49048" begin="840" fromJunction="J2" toJunction="J3" end="900" vehsPerHour="89.74403566272082"/>
  <flow id="JF49049" begin="840" fromJunction="J3" toJunction="J0" end="900" vehsPerHour="84.73181459074044"/>
  <flow id="JF49050" begin="840" fromJunction="J3" toJunction="J4" end="900" vehsPerHour="121.68201981220058"/>
  <flow id="JF49051" begin="840" fromJunction="J4" toJunction="J0" end="900" vehsPerHour="40.15611140246486"/>
  <flow id="JF49052" begin="840" fromJunction="J4" toJunction="J2" end="900" vehsPerHour="119.07555504883958"/>
  <flow id="JF49053" begin="840" fromJunction="J4" toJunction="J3" end="900" vehsPerHour="64.19077303272873"/>
  <flow id="JF49054" begin="900" fromJunction="J0" toJunction="J2" end="960" vehsPerHour="4.690164676641884"/>
  <flow id="JF49055" begin="900" fromJunction="J0" toJunction="J3" end="960" vehsPerHour="65.58080672283089"/>
  <flow id="JF49056" begin="900" fromJunction="J2" toJunction="J0" end="960" vehsPerHour="101.07466078242464"/>
  <flow id="JF49057" begin="900" fromJunction="J2" toJunction="J3" end="960" vehsPerHour="99.49802026877079"/>
  <flow id="JF49058" begin="900" fromJunction="J2" toJunction="J4" end="960" vehsPerHour="54.93811121092744"/>
  <flow id="JF49059" begin="900" fromJunction="J3" toJunction="J0" end="960" vehsPerHour="95.569002607355"/>
  <flow id="JF49060" begin="900" fromJunction="J3" toJunction="J2" end="960" vehsPerHour="95.51894930253047"/>
  <flow id="JF49061" begin="900" fromJunction="J3" toJunction="J4" end="960" vehsPerHour="106.50536911818102"/>
  <flow id="JF49062" begin="900" fromJunction="J4" toJunction="J0" end="960" vehsPerHour="103.83883731365405"/>
  <flow id="JF49063" begin="900" fromJunction="J4" toJunction="J2" end="960" vehsPerHour="5.238055823403478"/>
  <flow id="JF49064" begin="900" fromJunction="J4" toJunction="J3" end="960" vehsPerHour="134.76837823211108"/>
  <flow id="JF49065" begin="960" fromJunction="J0" toJunction="J2" end="1020" vehsPerHour="44.773786000561074"/>
  <flow id="JF49066" begin="960" fromJunction="J0" toJunction="J3" end="1020" vehsPerHour="116.96061024712121"/>
  <flow id="JF49067" begin="960" fromJunction="J0" toJunction="J4" end="1020" vehsPerHour="41.73111776399637"/>
  <flow id="JF49068" begin="960" fromJunction="J2" toJunction="J3" end="1020" vehsPerHour="134.4958332269178"/>
  <flow id="JF49069" begin="960" fromJunction="J2" toJunction="J4" end="1020" vehsPerHour="29.526822226876615"/>
  <flow id="JF49070" begin="960" fromJunction="J3" toJunction="J0" end="1020" vehsPerHour="67.1859622232973"/>
  <flow id="JF49071" begin="960" fromJunction="J3" toJunction="J2" end="1020" vehsPerHour="112.1579639806568"/>
  <flow id="JF49072" begin="960" fromJunction="J3" toJunction="J4" end="1020" vehsPerHour="52.551530637881505"/>
  <flow id="JF49073" begin="960" fromJunction="J4" toJunction="J2" end="1020" vehsPerHour="29.467025376959445"/>
  <flow id="JF49074" begin="960" fromJunction="J4" toJunction="J3" end="1020" vehsPerHour="69.69088919943712"/>
  <flow id="JF49075" begin="1020" fromJunction="J0" toJunction="J2" end="1080" vehsPerHour="126.57869714389128"/>
  <flow id="JF49076" begin="1020" fromJunction="J0" toJunction="J3" end="1080" vehsPerHour="42.46840037961987"/>
  <flow id="JF49077" begin="1020" fromJunction="J0" toJunction="J4" end="1080" vehsPerHour="130.68349850887006"/>
  <flow id="JF49078" begin="1020" fromJunction="J2" toJunction="J0" end="1080" vehsPerHour="32.27817129414193"/>
  <flow id="JF49079" begin="1020" fromJunction="J2" toJunction="J3" end="1080" vehsPerHour="123.80439523603836"/>
  <flow id="JF49080" begin="1020" fromJunction="J2" toJunction="J4" end="1080" vehsPerHour="110.10622151681852"/>
  <flow id="JF49081" begin="1020" fromJunction="J3" toJunction="J2" end="1080" vehsPerHour="134.3456574270261"/>
  <flow id="JF49082" begin="1020" fromJunction="J3" toJunction="J4" end="1080" vehsPerHour="61.75924565170283"/>
  <flow id="JF49083" begin="1020" fromJunction="J4" toJunction="J0" end="1080" vehsPerHour="20.724230240092886"/>
  <flow id="JF49084" begin="1020" fromJunction="J4" toJunction="J2" end="1080" vehsPerHour="57.87349602984674"/>
  <flow id="JF49085" begin="1020" fromJunction="J4" toJunction="J3" end="1080" vehsPerHour="72.27369688193315"/>
  <flow id="JF49086" begin="1080" fromJunction="J0" toJunction="J2" end="1140" vehsPerHour="10.23389267365286"/>
  <flow id="JF49087" begin="1080" fromJunction="J0" toJunction="J3" end="1140" vehsPerHour="99.72272584571202"/>
  <flow id="JF49088" begin="1080" fromJunction="J0" toJunction="J4" end="1140" vehsPerHour="41.034693541513874"/>
  <flow id="JF49089" begin="1080" fromJunction="J3" toJunction="J0" end="1140" vehsPerHour="103.3414134304186"/>
  <flow id="JF49090" begin="1080" fromJunction="J3" toJunction="J2" end="1140" vehsPerHour="63.69495014402932"/>
  <flow id="JF49091" begin="1080" fromJunction="J4" toJunction="J0" end="1140" vehsPerHour="0.2721981639512826"/>
  <flow id="JF49092" begin="1080" fromJunction="J4" toJunction="J2" end="1140" vehsPerHour="95.42743712006906"/>
  <flow id="JF49093" begin="1140" fromJunction="J0" toJunction="J2" end="1200" vehsPerHour="27.970693114471466"/>
  <flow id="JF49094" begin="1140" fromJunction="J2" toJunction="J3" end="1200" vehsPerHour="58.88798803235641"/>
  <flow id="JF49095" begin="1140" fromJunction="J4" toJunction="J0" end="1200" vehsPerHour="54.09772981161423"/>
  <flow id="JF49096" begin="1140" fromJunction="J4" toJunction="J2" end="1200" vehsPerHour="3.2498559874411423"/>
  <flow id="JF49097" begin="1200" fromJunction="J0" toJunction="J2" end="1260" vehsPerHour="43.41921736055692"/>
  <flow id="JF49098" begin="1200" fromJunction="J0" toJunction="J3" end="1260" vehsPerHour="6.345861362650646"/>
  <flow id="JF49099" begin="1200" fromJunction="J0" toJunction="J4" end="1260" vehsPerHour="37.36385462490858"/>
  <flow id="JF49100" begin="1200" fromJunction="J2" toJunction="J0" end="1260" vehsPerHour="59.915107672896355"/>
  <flow id="JF49101" begin="1200" fromJunction="J2" toJunction="J3" end="1260" vehsPerHour="85.07751425662434"/>
  <flow id="JF49102" begin="1200" fromJunction="J2" toJunction="J4" end="1260" vehsPerHour="99.31012590965837"/>
  <flow id="JF49103" begin="1200" fromJunction="J3" toJunction="J2" end="1260" vehsPerHour="137.24927962029398"/>
  <flow id="JF49104" begin="1200" fromJunction="J3" toJunction="J4" end="1260" vehsPerHour="87.29724304523693"/>
  <flow id="JF49105" begin="1200" fromJunction="J4" toJunction="J0" end="1260" vehsPerHour="96.40293819877465"/>
  <flow id="JF49106" begin="1200" fromJunction="J4" toJunction="J2" end="1260" vehsPerHour="58.62358154233539"/>
  <flow id="JF49107" begin="1200" fromJunction="J4" toJunction="J3" end="1260" vehsPerHour="82.46149391240614"/>
  <flow id="JF49108" begin="1260" fromJunction="J0" toJunction="J3" end="1320" vehsPerHour="124.30269062391018"/>
  <flow id="JF49109" begin="1260" fromJunction="J0" toJunction="J4" end="1320" vehsPerHour="63.63099023959009"/>
  <flow id="JF49110" begin="1260" fromJunction="J2" toJunction="J3" end="1320" vehsPerHour="53.1516829696634"/>
  <flow id="JF49111" begin="1260" fromJunction="J3" toJunction="J0" end="1320" vehsPerHour="117.64663284510706"/>
  <flow id="JF49112" begin="1260" fromJunction="J3" toJunction="J2" end="1320" vehsPerHour="4.090752334389066"/>
  <flow id="JF49113" begin="1260" fromJunction="J4" toJunction="J0" end="1320" vehsPerHour="74.65994973744827"/>
  <flow id="JF49114" begin="1260" fromJunction="J4" toJunction="J3" end="1320" vehsPerHour="65.16724392794173"/>
  <flow id="JF49115" begin="1320" fromJunction="J0" toJunction="J2" end="1380" vehsPerHour="13.972299223666415"/>
  <flow id="JF49116" begin="1320" fromJunction="J0" toJunction="J3" end="1380" vehsPerHour="4.17541409716718"/>
  <flow id="JF49117" begin="1320" fromJunction="J2" toJunction="J0" end="1380" vehsPerHour="106.24713941071124"/>
  <flow id="JF49118" begin="1320" fromJunction="J2" toJunction="J3" end="1380" vehsPerHour="16.9280448269017"/>
  <flow id="JF49119" begin="1320" fromJunction="J3" toJunction="J0" end="1380" vehsPerHour="61.84413815170229"/>
  <flow id="JF49120" begin="1320" fromJunction="J3" toJunction="J4" end="1380" vehsPerHour="67.17306308540175"/>
  <flow id="JF49121" begin="1320" fromJunction="J4" toJunction="J0" end="1380" vehsPerHour="22.087567221633527"/>
  <flow id="JF49122" begin="1320" fromJunction="J4" toJunction="J2" end="1380" vehsPerHour="104.14202030019439"/>
  <flow id="JF49123" begin="1320" fromJunction="J4" toJunction="J3" end="1380" vehsPerHour="72.7994291109036"/>
  <flow id="JF49124" begin="1380" fromJunction="J0" toJunction="J3" end="1440" vehsPerHour="13.378497749371647"/>
  <flow id="JF49125" begin="1380" fromJunction="J0" toJunction="J4" end="1440" vehsPerHour="40.62742269332143"/>
  <flow id="JF49126" begin="1380" fromJunction="J2" toJunction="J3" end="1440" vehsPerHour="95.69746069441037"/>
  <flow id="JF49127" begin="1380" fromJunction="J2" toJunction="J4" end="1440" vehsPerHour="110.54959197523414"/>
  <flow id="JF49128" begin="1380" fromJunction="J3" toJunction="J0" end="1440" vehsPerHour="123.89434525682894"/>
  <flow id="JF49129" begin="1380" fromJunction="J3" toJunction="J2" end="1440" vehsPerHour="133.4724638504594"/>
  <flow id="JF49130" begin="1380" fromJunction="J3" toJunction="J4" end="1440" vehsPerHour="28.52894673523788"/>
  <flow id="JF49131" begin="1380" fromJunction="J4" toJunction="J0" end="1440" vehsPerHour="100.1162308794482"/>
  <flow id="JF49132" begin="1380" fromJunction="J4" toJunction="J2" end="1440" vehsPerHour="28.88279670736729"/>
  <flow id="JF49133" begin="1440" fromJunction="J0" toJunction="J2" end="1500" vehsPerHour="71.57489029779303"/>
  <flow id="JF49134" begin="1440" fromJunction="J0" toJunction="J3" end="1500" vehsPerHour="48.07101413340376"/>
  <flow id="JF49135" begin="1440" fromJunction="J0" toJunction="J4" end="1500" vehsPerHour="69.80365682922937"/>
  <flow id="JF49136" begin="1440" fromJunction="J2" toJunction="J4" end="1500" vehsPerHour="67.79475644046745"/>
  <flow id="JF49137" begin="1440" fromJunction="J3" toJunction="J0" end="1500" vehsPerHour="53.46529388284944"/>
  <flow id="JF49138" begin="1440" fromJunction="J3" toJunction="J2" end="1500" vehsPerHour="81.45659837710122"/>
  <flow id="JF49139" begin="1440" fromJunction="J3" toJunction="J4" end="1500" vehsPerHour="60.42509893527928"/>
  <flow id="JF49140" begin="1440" fromJunction="J4" toJunction="J0" end="1500" vehsPerHour="80.9174814066697"/>
  <flow id="JF49141" begin="1440" fromJunction="J4" toJunction="J2" end="1500" vehsPerHour="62.392502455412156"/>
  <flow id="JF49142" begin="1440" fromJunction="J4" toJunction="J3" end="1500" vehsPerHour="116.29205309641868"/>
  <flow id="JF49143" begin="1500" fromJunction="J0" toJunction="J2" end="1560" vehsPerHour="1.793708273954667"/>
  <flow id="JF49144" begin="1500" fromJunction="J0" toJunction="J3" end="1560" vehsPerHour="101.1560727269926"/>
  <flow id="JF49145" begin="1500" fromJunction="J2" toJunction="J0" end="1560" vehsPerHour="107.7208775322324"/>
  <flow id="JF49146" begin="1500" fromJunction="J3" toJunction="J0" end="1560" vehsPerHour="109.81850065301288"/>
  <flow id="JF49147" begin="1500" fromJunction="J3" toJunction="J2" end="1560" vehsPerHour="80.65321268184391"/>
  <flow id="JF49148" begin="1500" fromJunction="J3" toJunction="J4" end="1560" vehsPerHour="12.81640974361723"/>
  <flow id="JF49149" begin="1500" fromJunction="J4" toJunction="J0" end="1560" vehsPerHour="102.27886552762732"/>
  <flow id="JF49150" begin="1500" fromJunction="J4" toJunction="J2" end="1560" vehsPerHour="126.62476454003095"/>
  <flow id="JF49151" begin="1560" fromJunction="J0" toJunction="J2" end="1620" vehsPerHour="58.261464671966394"/>
  <flow id="JF49152" begin="1560" fromJunction="J0" toJunction="J3" end="1620" vehsPerHour="44.32228811002654"/>
  <flow id="JF49153" begin="1560" fromJunction="J0" toJunction="J4" end="1620" vehsPerHour="21.104917911314907"/>
  <flow id="JF49154" begin="1560" fromJunction="J2" toJunction="J0" end="1620" vehsPerHour="35.039256574462605"/>
  <flow id="JF49155" begin="1560" fromJunction="J2" toJunction="J3" end="1620" vehsPerHour="58.79379717532609"/>
  <flow id="JF49156" begin="1560" fromJunction="J2" toJunction="J4" end="1620" vehsPerHour="117.41873090762351"/>
  <flow id="JF49157" begin="1560" fromJunction="J3" toJunction="J2" end="1620" vehsPerHour="25.148237088480915"/>
  <flow id="JF49158" begin="1560" fromJunction="J3" toJunction="J4" end="1620" vehsPerHour="19.068070702542606"/>
  <flow id="JF49159" begin="1560" fromJunction="J4" toJunction="J0" end="1620" vehsPerHour="80.51526586269762"/>
  <flow id="JF49160" begin="1560" fromJunction="J4" toJunction="J2" end="1620" vehsPerHour="3.383110299393287"/>
  <flow id="JF49161" begin="1560" fromJunction="J4" toJunction="J3" end="1620" vehsPerHour="81.76162484302999"/>
  <flow id="JF49162" begin="1620" fromJunction="J0" toJunction="J2" end="1680" vehsPerHour="102.2516472720881"/>
  <flow id="JF49163" begin="1620" fromJunction="J0" toJunction="J4" end="1680" vehsPerHour="53.07069977408578"/>
  <flow id="JF49164" begin="1620" fromJunction="J2" toJunction="J0" end="1680" vehsPerHour="53.93659662149873"/>
  <flow id="JF49165" begin="1620" fromJunction="J2" toJunction="J3" end="1680" vehsPerHour="22.706271758636117"/>
  <flow id="JF49166" begin="1620" fromJunction="J2" toJunction="J4" end="1680" vehsPerHour="17.449974492159136"/>
  <flow id="JF49167" begin="1620" fromJunction="J3" toJunction="J0" end="1680" vehsPerHour="33.4503154067046"/>
  <flow id="JF49168" begin="1620" fromJunction="J3" toJunction="J2" end="1680" vehsPerHour="12.50926196461369"/>
  <flow id="JF49169" begin="1620" fromJunction="J3" toJunction="J4" end="1680" vehsPerHour="80.98601730858014"/>
  <flow id="JF49170" begin="1620" fromJunction="J4" toJunction="J0" end="1680" vehsPerHour="14.42716456338516"/>
  <flow id="JF49171" begin="1620" fromJunction="J4" toJunction="J2" end="1680" vehsPerHour="47.56172345413763"/>
  <flow id="JF49172" begin="1620" fromJunction="J4" toJunction="J3" end="1680" vehsPerHour="135.3379925046196"/>
  <flow id="JF49173" begin="1680" fromJunction="J0" toJunction="J2" end="1740" vehsPerHour="31.092775229841173"/>
  <flow id="JF49174" begin="1680" fromJunction="J0" toJunction="J3" end="1740" vehsPerHour="41.76407299787081"/>
  <flow id="JF49175" begin="1680" fromJunction="J0" toJunction="J4" end="1740" vehsPerHour="32.94676722456897"/>
  <flow id="JF49176" begin="1680" fromJunction="J2" toJunction="J0" end="1740" vehsPerHour="1.3745028580335874"/>
  <flow id="JF49177" begin="1680" fromJunction="J3" toJunction="J0" end="1740" vehsPerHour="38.22406106768943"/>
  <flow id="JF49178" begin="1680" fromJunction="J3" toJunction="J2" end="1740" vehsPerHour="93.54945336439229"/>
  <flow id="JF49179" begin="1680" fromJunction="J3" toJunction="J4" end="1740" vehsPerHour="107.42151853992947"/>
  <flow id="JF49180" begin="1680" fromJunction="J4" toJunction="J0" end="1740" vehsPerHour="13.686717526053148"/>
  <flow id="JF49181" begin="1680" fromJunction="J4" toJunction="J2" end="1740" vehsPerHour="42.147125552518006"/>
  <flow id="JF49182" begin="1680" fromJunction="J4" toJunction="J3" end="1740" vehsPerHour="43.99496330816115"/>
  <flow id="JF49183" begin="1740" fromJunction="J0" toJunction="J2" end="1800" vehsPerHour="80.50723387697295"/>
  <flow id="JF49184" begin="1740" fromJunction="J2" toJunction="J0" end="1800" vehsPerHour="47.420373877903224"/>
  <flow id="JF49185" begin="1740" fromJunction="J2" toJunction="J3" end="1800" vehsPerHour="133.92874580360441"/>
  <flow id="JF49186" begin="1740" fromJunction="J2" toJunction="J4" end="1800" vehsPerHour="89.26775572943995"/>
  <flow id="JF49187" begin="1740" fromJunction="J3" toJunction="J2" end="1800" vehsPerHour="108.42155265292119"/>
  <flow id="JF49188" begin="1740" fromJunction="J4" toJunction="J2" end="1800" vehsPerHour="135.97035683136943"/>
  <flow id="JF49189" begin="1740" fromJunction="J4" toJunction="J3" end="1800" vehsPerHour="14.495577438522284"/>
  <flow id="JF49190" begin="1800" fromJunction="J0" toJunction="J2" end="1860" vehsPerHour="79.376775663065"/>
  <flow id="JF49191" begin="1800" fromJunction="J0" toJunction="J3" end="1860" vehsPerHour="70.47274328804029"/>
  <flow id="JF49192" begin="1800" fromJunction="J2" toJunction="J3" end="1860" vehsPerHour="50.35514591378667"/>