<?xml version="1.0" encoding="UTF-8"?>
<routes xmlns:xsi="http://www.w3.org/2001/XMLSchema-instance" xsi:noNamespaceSchemaLocation="http://sumo.dlr.de/xsd/routes_file.xsd">
  <flow id="JF50494" begin="0" fromJunction="J2" toJunction="J0" end="60" vehsPerHour="81.8828644878168"/>
  <flow id="JF50495" begin="0" fromJunction="J2" toJunction="J3" end="60" vehsPerHour="58.539976863094466"/>
  <flow id="JF50496" begin="0" fromJunction="J2" toJunction="J4" end="60" vehsPerHour="96.43299857884536"/>
  <flow id="JF50497" begin="0" fromJunction="J3" toJunction="J0" end="60" vehsPerHour="10.398766447027278"/>
  <flow id="JF50498" begin="0" fromJunction="J3" toJunction="J4" end="60" vehsPerHour="42.02483038119777"/>
  <flow id="JF50499" begin="0" fromJunction="J4" toJunction="J0" end="60" vehsPerHour="80.07679241752605"/>
  <flow id="JF50500" begin="0" fromJunction="J4" toJunction="J2" end="60" vehsPerHour="47.150446130772565"/>
  <flow id="JF50501" begin="0" fromJunction="J4" toJunction="J3" end="60" vehsPerHour="132.63369985346475"/>
  <flow id="JF50502" begin="60" fromJunction="J0" toJunction="J2" end="120" vehsPerHour="118.71954150208614"/>
  <flow id="JF50503" begin="60" fromJunction="J0" toJunction="J4" end="120" vehsPerHour="13.14531960886985"/>
  <flow id="JF50504" begin="60" fromJunction="J2" toJunction="J0" end="120" vehsPerHour="71.46142460030401"/>
  <flow id="JF50505" begin="60" fromJunction="J2" toJunction="J4" end="120" vehsPerHour="48.34496355911959"/>
  <flow id="JF50506" begin="60" fromJunction="J3" toJunction="J0" end="120" vehsPerHour="50.063199962015254"/>
  <flow id="JF50507" begin="60" fromJunction="J3" toJunction="J2" end="120" vehsPerHour="9.417531912393326"/>
  <flow id="JF50508" begin="60" fromJunction="J3" toJunction="J4" end="120" vehsPerHour="3.5740074630283822"/>
  <flow id="JF50509" begin="60" fromJunction="J4" toJunction="J0" end="120" vehsPerHour="40.07489124349283"/>
  <flow id="JF50510" begin="60" fromJunction="J4" toJunction="J2" end="120" vehsPerHour="126.11320370256173"/>
  <flow id="JF50511" begin="60" fromJunction="J4" toJunction="J3" end="120" vehsPerHour="33.65048581198407"/>
  <flow id="JF50512" begin="120" fromJunction="J0" toJunction="J2" end="180" vehsPerHour="126.41343929369869"/>
  <flow id="JF50513" begin="120" fromJunction="J0" toJunction="J3" end="180" vehsPerHour="17.861167993165214"/>
  <flow id="JF50514" begin="120" fromJunction="J0" toJunction="J4" end="180" vehsPerHour="60.11160874584649"/>
  <flow id="JF50515" begin="120" fromJunction="J2" toJunction="J0" end="180" vehsPerHour="75.00377908434692"/>
  <flow id="JF50516" begin="120" fromJunction="J2" toJunction="J3" end="180" vehsPerHour="63.039933311942086"/>
  <flow id="JF50517" begin="120" fromJunction="J2" toJunction="J4" end="180" vehsPerHour="18.213006782585722"/>
  <flow id="JF50518" begin="120" fromJunction="J3" toJunction="J0" end="180" vehsPerHour="1.5034248719296266"/>
  <flow id="JF50519" begin="120" fromJunction="J3" toJunction="J2" end="180" vehsPerHour="121.94440983784258"/>
  <flow id="JF50520" begin="120" fromJunction="J4" toJunction="J3" end="180" vehsPerHour="63.28754108693929"/>
  <flow id="JF50521" begin="180" fromJunction="J0" toJunction="J2" end="240" vehsPerHour="49.89187178016073"/>
  <flow id="JF50522" begin="180" fromJunction="J0" toJunction="J3" end="240" vehsPerHour="126.48721686666224"/>
  <flow id="JF50523" begin="180" fromJunction="J0" toJunction="J4" end="240" vehsPerHour="86.10695060551788"/>
  <flow id="JF50524" begin="180" fromJunction="J2" toJunction="J4" end="240" vehsPerHour="90.62105823281289"/>
  <flow id="JF50525" begin="180" fromJunction="J3" toJunction="J0" end="240" vehsPerHour="123.4620471431499"/>
  <flow id="JF50526" begin="180" fromJunction="J3" toJunction="J2" end="240" vehsPerHour="30.29084427557369"/>
  <flow id="JF50527" begin="180" fromJunction="J3" toJunction="J4" end="240" vehsPerHour="73.24346290694695"/>
  <flow id="JF50528" begin="180" fromJunction="J4" toJunction="J0" end="240" vehsPerHour="124.87941035866537"/>
  <flow id="JF50529" begin="180" fromJunction="J4" toJunction="J2" end="240" vehsPerHour="49.554567035425414"/>
  <flow id="JF50530" begin="180" fromJunction="J4" toJunction="J3" end="240" vehsPerHour="13.078726273265119"/>
  <flow id="JF50531" begin="240" fromJunction="J0" toJunction="J2" end="300" vehsPerHour="80.84384747395819"/>
  <flow id="JF50532" begin="240" fromJunction="J0" toJunction="J4" end="300" vehsPerHour="123.71902212248638"/>
  <flow id="JF50533" begin="240" fromJunction="J2" toJunction="J4" end="300" vehsPerHour="76.87436989934335"/>
  <flow id="JF50534" begin="240" fromJunction="J3" toJunction="J4" end="300" vehsPerHour="110.63041523940585"/>
  <flow id="JF50535" begin="240" fromJunction="J4" toJunction="J0" end="300" vehsPerHour="67.84002277328352"/>
  <flow id="JF50536" begin="240" fromJunction="J4" toJunction="J2" end="300" vehsPerHour="16.87809423295185"/>
  <flow id="JF50537" begin="240" fromJunction="J4" toJunction="J3" end="300" vehsPerHour="113.31912557014213"/>
  <flow id="JF50538" begin="300" fromJunction="J0" toJunction="J3" end="360" vehsPerHour="101.4856286110578"/>
  <flow id="JF50539" begin="300" fromJunction="J2" toJunction="J0" end="360" vehsPerHour="81.08441365425921"/>
  <flow id="JF50540" begin="300" fromJunction="J2" toJunction="J3" end="360" vehsPerHour="13.900080183269546"/>
  <flow id="JF50541" begin="300" fromJunction="J2" toJunction="J4" end="360" vehsPerHour="105.88761557674708"/>
  <flow id="JF50542" begin="300" fromJunction="J3" toJunction="J4" end="360" vehsPerHour="65.03537802411006"/>
  <flow id="JF50543" begin="300" fromJunction="J4" toJunction="J0" end="360" vehsPerHour="29.958423015861655"/>
  <flow id="JF50544" begin="360" fromJunction="J0" toJunction="J2" end="420" vehsPerHour="7.800081259334363"/>
  <flow id="JF50545" begin="360" fromJunction="J0" toJunction="J3" end="420" vehsPerHour="89.10616396896908"/>
  <flow id="JF50546" begin="360" fromJunction="J0" toJunction="J4" end="420" vehsPerHour="71.77229942685811"/>
  <flow id="JF50547" begin="360" fromJunction="J3" toJunction="J4" end="420" vehsPerHour="48.70994788542862"/>
  <flow id="JF50548" begin="360" fromJunction="J4" toJunction="J0" end="420" vehsPerHour="134.61842218000905"/>
  <flow id="JF50549" begin="360" fromJunction="J4" toJunction="J3" end="420" vehsPerHour="124.87191420243542"/>
  <flow id="JF50550" begin="420" fromJunction="J0" toJunction="J2" end="480" vehsPerHour="89.17611078986985"/>
  <flow id="JF50551" begin="420" fromJunction="J0" toJunction="J3" end="480" vehsPerHour="61.295847283318885"/>
  <flow id="JF50552" begin="420" fromJunction="J0" toJunction="J4" end="480" vehsPerHour="16.571930037831354"/>
  <flow id="JF50553" begin="420" fromJunction="J2" toJunction="J3" end="480" vehsPerHour="90.45647760844629"/>
  <flow id="JF50554" begin="420" fromJunction="J2" toJunction="J4" end="480" vehsPerHour="75.82845316738347"/>
  <flow id="JF50555" begin="420" fromJunction="J3" toJunction="J0" end="480" vehsPerHour="132.42688040771253"/>
  <flow id="JF50556" begin="420" fromJunction="J3" toJunction="J2" end="480" vehsPerHour="69.57821579554947"/>
  <flow id="JF50557" begin="420" fromJunction="J3" toJunction="J4" end="480" vehsPerHour="50.476641695836825"/>
  <flow id="JF50558" begin="420" fromJunction="J4" toJunction="J2" end="480" vehsPerHour="71.14123411489312"/>
  <flow id="JF50559" begin="420" fromJunction="J4" toJunction="J3" end="480" vehsPerHour="26.641769222782727"/>
  <flow id="JF50560" begin="480" fromJunction="J0" toJunction="J2" end="540" vehsPerHour="109.57445592592713"/>
  <flow id="JF50561" begin="480" fromJunction="J0" toJunction="J3" end="540" vehsPerHour="130.629736363698"/>
  <flow id="JF50562" begin="480" fromJunction="J2" toJunction="J0" end="540" vehsPerHour="106.08305599190258"/>
  <flow id="JF50563" begin="480" fromJunction="J2" toJunction="J3" end="540" vehsPerHour="122.43348760905339"/>
  <flow id="JF50564" begin="480" fromJunction="J2" toJunction="J4" end="540" vehsPerHour="111.28196405641653"/>
  <flow id="JF50565" begin="480" fromJunction="J3" toJunction="J2" end="540" vehsPerHour="47.35724920508097"/>
  <flow id="JF50566" begin="480" fromJunction="J3" toJunction="J4" end="540" vehsPerHour="102.32950259314529"/>
  <flow id="JF50567" begin="480" fromJunction="J4" toJunction="J0" end="540" vehsPerHour="118.81251820005896"/>
  <flow id="JF50568" begin="480" fromJunction="J4" toJunction="J2" end="540" vehsPerHour="51.87866838250014"/>
  <flow id="JF50569" begin="480" fromJunction="J4" toJunction="J3" end="540" vehsPerHour="56.500652800597656"/>
  <flow id="JF50570" begin="540" fromJunction="J0" toJunction="J2" end="600" vehsPerHour="104.62446322892988"/>
  <flow id="JF50571" begin="540" fromJunction="J0" toJunction="J3" end="600" vehsPerHour="13.907272877177437"/>
  <flow id="JF50572" begin="540" fromJunction="J2" toJunction="J0" end="600" vehsPerHour="23.981158857737867"/>
  <flow id="JF50573" begin="540" fromJunction="J2" toJunction="J3" end="600" vehsPerHour="29.27706282358919"/>
  <flow id="JF50574" begin="540" fromJunction="J3" toJunction="J2" end="600" vehsPerHour="86.78015275848728"/>
  <flow id="JF50575" begin="540" fromJunction="J4" toJunction="J0" end="600" vehsPerHour="5.263042091455833"/>
  <flow id="JF50576" begin="540" fromJunction="J4" toJunction="J2" end="600" vehsPerHour="92.83078134731547"/>
  <flow id="JF50577" begin="600" fromJunction="J2" toJunction="J0" end="660" vehsPerHour="34.174312617130084"/>
  <flow id="JF50578" begin="600" fromJunction="J2" toJunction="J3" end="660" vehsPerHour="16.725512077708036"/>
  <flow id="JF50579" begin="600" fromJunction="J2" toJunction="J4" end="660" vehsPerHour="84.59358750423773"/>
  <flow id="JF50580" begin="600" fromJunction="J3" toJunction="J2" end="660" vehsPerHour="37.948010710026516"/>
  <flow id="JF50581" begin="600" fromJunction="J4" toJunction="J2" end="660" vehsPerHour="102.95471145528145"/>
  <flow id="JF50582" begin="600" fromJunction="J4" toJunction="J3" end="660" vehsPerHour="97.7670142079829"/>
  <flow id="JF50583" begin="660" fromJunction="J0" toJunction="J4" end="720" vehsPerHour="75.2267694606429"/>
  <flow id="JF50584" begin="660" fromJunction="J2" toJunction="J0" end="720" vehsPerHour="101.50879524185324"/>
  <flow id="JF50585" begin="660" fromJunction="J2" toJunction="J3" end="720" vehsPerHour="46.849957031991835"/>
  <flow id="JF50586" begin="660" fromJunction="J2" toJunction="J4" end="720" vehsPerHour="3.1004613091027924"/>
  <flow id="JF50587" begin="660" fromJunction="J3" toJunction="J0" end="720" vehsPerHour="90.43362888584387"/>
  <flow id="JF50588" begin="660" fromJunction="J3" toJunction="J2" end="720" vehsPerHour="79.13811155681617"/>
  <flow id="JF50589" begin="660" fromJunction="J3" toJunction="J4" end="720" vehsPerHour="58.18627924736462"/>
  <flow id="JF50590" begin="660" fromJunction="J4" toJunction="J0" end="720" vehsPerHour="53.31734915990233"/>
  <flow id="JF50591" begin="660" fromJunction="J4" toJunction="J2" end="720" vehsPerHour="69.21941987925767"/>
  <flow id="JF50592" begin="720" fromJunction="J0" toJunction="J2" end="780" vehsPerHour="33.09968299266595"/>
  <flow id="JF50593" begin="720" fromJunction="J0" toJunction="J3" end="780" vehsPerHour="2.7604905510851454"/>
  <flow id="JF50594" begin="720" fromJunction="J2" toJunction="J0" end="780" vehsPerHour="49.51795266363254"/>
  <flow id="JF50595" begin="720" fromJunction="J2" toJunction="J3" end="780" vehsPerHour="85.03397231506155"/>
  <flow id="JF50596" begin="720" fromJunction="J3" toJunction="J0" end="780" vehsPerHour="14.5841130230589"/>
  <flow id="JF50597" begin="720" fromJunction="J3" toJunction="J4" end="780" vehsPerHour="65.67918602930204"/>
  <flow id="JF50598" begin="720" fromJunction="J4" toJunction="J2" end="780" vehsPerHour="17.854478106628832"/>
  <flow id="JF50599" begin="720" fromJunction="J4" toJunction="J3" end="780" vehsPerHour="19.60726367371156"/>
  <flow id="JF50600" begin="780" fromJunction="J0" toJunction="J3" end="840" vehsPerHour="89.06803322794717"/>
  <flow id="JF50601" begin="780" fromJunction="J0" toJunction="J4" end="840" vehsPerHour="121.64700261094947"/>
  <flow id="JF50602" begin="780" fromJunction="J2" toJunction="J0" end="840" vehsPerHour="32.714701448287336"/>
  <flow id="JF50603" begin="780" fromJunction="J2" toJunction="J3" end="840" vehsPerHour="115.58863762283337"/>
  <flow id="JF50604" begin="780" fromJunction="J2" toJunction="J4" end="840" vehsPerHour="28.39021989279188"/>
  <flow id="JF50605" begin="780" fromJunction="J3" toJunction="J0" end="840" vehsPerHour="129.63857669836793"/>
  <flow id="JF50606" begin="780" fromJunction="J3" toJunction="J2" end="840" vehsPerHour="53.259906917776945"/>
  <flow id="JF50607" begin="780" fromJunction="J3" toJunction="J4" end="840" vehsPerHour="49.089432653716976"/>
  <flow id="JF50608" begin="780" fromJunction="J4" toJunction="J0" end="840" vehsPerHour="116.54230213176136"/>
  <flow id="JF50609" begin="840" fromJunction="J0" toJunction="J4" end="900" vehsPerHour="57.800971314296355"/>
  <flow id="JF50610" begin="840" fromJunction="J2" toJunction="J0" end="900" vehsPerHour="41.652230929459336"/>
  <flow id="JF50611" begin="840" fromJunction="J3" toJunction="J0" end="900" vehsPerHour="90.86522855298107"/>
  <flow id="JF50612" begin="840" fromJunction="J3" toJunction="J2" end="900" vehsPerHour="125.5641180511901"/>
  <flow id="JF50613" begin="840" fromJunction="J3" toJunction="J4" end="900" vehsPerHour="110.61066565523349"/>
  <flow id="JF50614" begin="840" fromJunction="J4" toJunction="J3" end="900" vehsPerHour="105.51903824754675"/>
  <flow id="JF50615" begin="900" fromJunction="J0" toJunction="J2" end="960" vehsPerHour="28.695082192156487"/>
  <flow id="JF50616" begin="900" fromJunction="J0" toJunction="J3" end="960" vehsPerHour="9.441207081662643"/>
  <flow id="JF50617" begin="900" fromJunction="J0" toJunction="J4" end="960" vehsPerHour="80.83254736558405"/>
  <flow id="JF50618" begin="900" fromJunction="J2" toJunction="J0" end="960" vehsPerHour="70.81863741015219"/>
  <flow id="JF50619" begin="900" fromJunction="J3" toJunction="J4" end="960" vehsPerHour="22.712935631469154"/>
  <flow id="JF50620" begin="900" fromJunction="J4" toJunction="J0" end="960" vehsPerHour="135.2458511323627"/>
  <flow id="JF50621" begin="900" fromJunction="J4" toJunction="J2" end="960" vehsPerHour="96.17705619674321"/>
  <flow id="JF50622" begin="900" fromJunction="J4" toJunction="J3" end="960" vehsPerHour="65.46531670217577"/>
  <flow id="JF50623" begin="960" fromJunction="J0" toJunction="J2" end="1020" vehsPerHour="96.72417163484903"/>
  <flow id="JF50624" begin="960" fromJunction="J0" toJunction="J3" end="1020" vehsPerHour="118.1533059742275"/>
  <flow id="JF50625" begin="960" fromJunction="J0" toJunction="J4" end="1020" vehsPerHour="64.8388067560201"/>
  <flow id="JF50626" begin="960" fromJunction="J2" toJunction="J0" end="1020" vehsPerHour="52.359796781829075"/>
  <flow id="JF50627" begin="960" fromJunction="J2" toJunction="J3" end="1020" vehsPerHour="116.17815390142445"/>
  <flow id="JF50628" begin="960" fromJunction="J2" toJunction="J4" end="1020" vehsPerHour="133.27381767345815"/>
  <flow id="JF50629" begin="960" fromJunction="J3" toJunction="J0" end="1020" vehsPerHour="21.70962175804163"/>
  <flow id="JF50630" begin="960" fromJunction="J4" toJunction="J0" end="1020" vehsPerHour="124.12216023694712"/>
  <flow id="JF50631" begin="960" fromJunction="J4" toJunction="J2" end="1020" vehsPerHour="125.02958127252579"/>
  <flow id="JF50632" begin="960" fromJunction="J4" toJunction="J3" end="1020" vehsPerHour="6.474873476443145"/>
  <flow id="JF50633" begin="1020" fromJunction="J0" toJunction="J3" end="1080" vehsPerHour="71.94983761040227"/>
  <flow id="JF50634" begin="1020" fromJunction="J0" toJunction="J4" end="1080" vehsPerHour="14.369274607687371"/>
  <flow id="JF50635" begin="1020" fromJunction="J2" toJunction="J3" end="1080" vehsPerHour="34.70662781026324"/>
  <flow id="JF50636" begin="1020" fromJunction="J2" toJunction="J4" end="1080" vehsPerHour="19.106581836410815"/>
  <flow id="JF50637" begin="1020" fromJunction="J3" toJunction="J0" end="1080" vehsPerHour="114.04050125980223"/>
  <flow id="JF50638" begin="1020" fromJunction="J3" toJunction="J2" end="1080" vehsPerHour="53.642395293741764"/>
  <flow id="JF50639" begin="1020" fromJunction="J3" toJunction="J4" end="1080" vehsPerHour="101.53987529195898"/>
  <flow id="JF50640" begin="1020" fromJunction="J4" toJunction="J0" end="1080" vehsPerHour="81.53659002595774"/>
  <flow id="JF50641" begin="1020" fromJunction="J4" toJunction="J2" end="1080" vehsPerHour="36.379971593283784"/>
  <flow id="JF50642" begin="1020" fromJunction="J4" toJunction="J3" end="1080" vehsPerHour="75.02391015775349"/>
  <flow id="JF50643" begin="1080" fromJunction="J0" toJunction="J4" end="1140" vehsPerHour="7.950651495098384"/>
  <flow id="JF50644" begin="1080" fromJunction="J2" toJunction="J3" end="1140" vehsPerHour="61.326067535052246"/>
  <flow id="JF50645" begin="1080" fromJunction="J2" toJunction="J4" end="1140" vehsPerHour="100.389045193251"/>
  <flow id="JF50646" begin="1080" fromJunction="J3" toJunction="J0" end="1140" vehsPerHour="83.65104273448576"/>
  <flow id="JF50647" begin="1080" fromJunction="J4" toJunction="J0" end="1140" vehsPerHour="27.772524887501866"/>
  <flow id="JF50648" begin="1080" fromJunction="J4" toJunction="J2" end="1140" vehsPerHour="133.3375753816311"/>
  <flow id="JF50649" begin="1140" fromJunction="J0" toJunction="J2" end="1200" vehsPerHour="56.34915694544312"/>
  <flow id="JF50650" begin="1140" fromJunction="J0" toJunction="J3" end="1200" vehsPerHour="22.50772843125528"/>
  <flow id="JF50651" begin="1140" fromJunction="J0" toJunction="J4" end="1200" vehsPerHour="136.960405241818"/>
  <flow id="JF50652" begin="1140" fromJunction="J2" toJunction="J3" end="1200" vehsPerHour="105.917819364095"/>
  <flow id="JF50653" begin="1140" fromJunction="J2" toJunction="J4" end="1200" vehsPerHour="70.45465214098647"/>
  <flow id="JF50654" begin="1140" fromJunction="J3" toJunction="J0" end="1200" vehsPerHour="92.40349074653719"/>
  <flow id="JF50655" begin="1140" fromJunction="J3" toJunction="J4" end="1200" vehsPerHour="49.270149400180756"/>
  <flow id="JF50656" begin="1140" fromJunction="J4" toJunction="J0" end="1200" vehsPerHour="62.510027345843326"/>
  <flow id="JF50657" begin="1140" fromJunction="J4" toJunction="J2" end="1200" vehsPerHour="25.353302430680714"/>
  <flow id="JF50658" begin="1140" fromJunction="J4" toJunction="J3" end="1200" vehsPerHour="108.09369626009867"/>
  <flow id="JF50659" begin="1200" fromJunction="J0" toJunction="J2" end="1260" vehsPerHour="105.1277791059032"/>
  <flow id="JF50660" begin="1200" fromJunction="J0" toJunction="J3" end="1260" vehsPerHour="22.858650274886404"/>
  <flow id="JF50661" begin="1200" fromJunction="J2" toJunction="J0" end="1260" vehsPerHour="95.43182227038214"/>
  <flow id="JF50662" begin="1200" fromJunction="J2" toJunction="J3" end="1260" vehsPerHour="82.2766900747607"/>
  <flow id="JF50663" begin="1200" fromJunction="J3" toJunction="J2" end="1260" vehsPerHour="16.475162130206872"/>
  <flow id="JF50664" begin="1200" fromJunction="J3" toJunction="J4" end="1260" vehsPerHour="89.26716566600857"/>
  <flow id="JF50665" begin="1200" fromJunction="J4" toJunction="J0" end="1260" vehsPerHour="131.134262465107"/>
  <flow id="JF50666" begin="1200" fromJunction="J4" toJunction="J3" end="1260" vehsPerHour="62.29721160553951"/>
  <flow id="JF50667" begin="1260" fromJunction="J0" toJunction="J2" end="1320" vehsPerHour="95.83966183886832"/>
  <flow id="JF50668" begin="1260" fromJunction="J0" toJunction="J3" end="1320" vehsPerHour="59.4858328315928"/>
  <flow id="JF50669" begin="1260" fromJunction="J0" toJunction="J4" end="1320" vehsPerHour="102.11443893229954"/>
  <flow id="JF50670" begin="1260" fromJunction="J2" toJunction="J0" end="1320" vehsPerHour="30.903823984670076"/>
  <flow id="JF50671" begin="1260" fromJunction="J2" toJunction="J3" end="1320" vehsPerHour="130.09802701631423"/>
  <flow id="JF50672" begin="1260" fromJunction="J2" toJunction="J4" end="1320" vehsPerHour="112.70343690223083"/>
  <flow id="JF50673" begin="1260" fromJunction="J3" toJunction="J2" end="1320" vehsPerHour="93.67318272874361"/>
  <flow id="JF50674" begin="1260" fromJunction="J3" toJunction="J4" end="1320" vehsPerHour="44.419430654947355"/>
  <flow id="JF50675" begin="1260" fromJunction="J4" toJunction="J3" end="1320" vehsPerHour="63.91398554231594"/>
  <flow id="JF50676" begin="1320" fromJunction="J0" toJunction="J2" end="1380" vehsPerHour="13.291024905217064"/>
  <flow id="JF50677" begin="1320" fromJunction="J0" toJunction="J3" end="1380" vehsPerHour="119.28093520174855"/>
  <flow id="JF50678" begin="1320" fromJunction="J2" toJunction="J0" end="1380" vehsPerHour="105.98458279420473"/>
  <flow id="JF50679" begin="1320" fromJunction="J2" toJunction="J4" end="1380" vehsPerHour="74.04392213425116"/>
  <flow id="JF50680" begin="1320" fromJunction="J3" toJunction="J0" end="1380" vehsPerHour="68.25443406487477"/>
  <flow id="JF50681" begin="1320" fromJunction="J3" toJunction="J2" end="1380" vehsPerHour="43.91117384951613"/>
  <flow id="JF50682" begin="1320" fromJunction="J4" toJunction="J3" end="1380" vehsPerHour="96.44054839461685"/>
  <flow id="JF50683" begin="1380" fromJunction="J0" toJunction="J3" end="1440" vehsPerHour="44.46000327565092"/>
  <flow id="JF50684" begin="1380" fromJunction="J0" toJunction="J4" end="1440" vehsPerHour="67.59858560173856"/>
  <flow id="JF50685" begin="1380" fromJunction="J2" toJunction="J3" end="1440" vehsPerHour="62.4799022849776"/>
  <flow id="JF50686" begin="1380" fromJunction="J2" toJunction="J4" end="1440" vehsPerHour="110.50280897324579"/>
  <flow id="JF50687" begin="1380" fromJunction="J3" toJunction="J0" end="1440" vehsPerHour="112.11851968855166"/>
  <flow id="JF50688" begin="1380" fromJunction="J3" toJunction="J2" end="1440" vehsPerHour="125.63250090913834"/>
  <flow id="JF50689" begin="1380" fromJunction="J3" toJunction="J4" end="1440" vehsPerHour="70.94378874768447"/>
  <flow id="JF50690" begin="1380" fromJunction="J4" toJunction="J0" end="1440" vehsPerHour="29.233568475967722"/>
  <flow id="JF50691" begin="1440" fromJunction="J0" toJunction="J2" end="1500" vehsPerHour="91.81977610929354"/>
  <flow id="JF50692" begin="1440" fromJunction="J0" toJunction="J3" end="1500" vehsPerHour="35.14882056112488"/>
  <flow id="JF50693" begin="1440" fromJunction="J0" toJunction="J4" end="1500" vehsPerHour="11.456960857473314"/>
  <flow id="JF50694" begin="1440" fromJunction="J2" toJunction="J3" end="1500" vehsPerHour="57.53903186812296"/>
  <flow id="JF50695" begin="1440" fromJunction="J3" toJunction="J0" end="1500" vehsPerHour="5.127992579368857"/>
  <flow id="JF50696" begin="1440" fromJunction="J3" toJunction="J2" end="1500" vehsPerHour="76.86465486216272"/>
  <flow id="JF50697" begin="1440" fromJunction="J3" toJunction="J4" end="1500" vehsPerHour="56.20017756761652"/>
  <flow id="JF50698" begin="1440" fromJunction="J4" toJunction="J0" end="1500" vehsPerHour="79.2692813732677"/>
  <flow id="JF50699" begin="1440" fromJunction="J4" toJunction="J2" end="1500" vehsPerHour="46.69406598812033"/>
  <flow id="JF50700" begin="1440" fromJunction="J4" toJunction="J3" end="1500" vehsPerHour="129.02610599856152"/>
  <flow id="JF50701" begin="1500" fromJunction="J0" toJunction="J3" end="1560" vehsPerHour="13.24960954963305"/>
  <flow id="JF50702" begin="1500" fromJunction="J0" toJunction="J4" end="1560" vehsPerHour="46.15567151715901"/>
  <flow id="JF50703" begin="1500" fromJunction="J2" toJunction="J3" end="1560" vehsPerHour="59.63007676142621"/>
  <flow id="JF50704" begin="1500" fromJunction="J2" toJunction="J4" end="1560" vehsPerHour="15.671411602101642"/>
  <flow id="JF50705" begin="1500" fromJunction="J3" toJunction="J2" end="1560" vehsPerHour="104.26276151575057"/>
  <flow id="JF50706" begin="1500" fromJunction="J4" toJunction="J0" end="1560" vehsPerHour="21.204085521557005"/>
  <flow id="JF50707" begin="1500" fromJunction="J4" toJunction="J3" end="1560" vehsPerHour="53.494598950721105"/>
  <flow id="JF50708" begin="1560" fromJunction="J0" toJunction="J2" end="1620" vehsPerHour="45.19937854760094"/>
  <flow id="JF50709" begin="1560" fromJunction="J0" toJunction="J4" end="1620" vehsPerHour="67.75839905407054"/>
  <flow id="JF50710" begin="1560" fromJunction="J2" toJunction="J3" end="1620" vehsPerHour="32.09424384439959"/>
  <flow id="JF50711" begin="1560" fromJunction="J2" toJunction="J4" end="1620" vehsPerHour="123.13930486873332"/>
  <flow id="JF50712" begin="1560" fromJunction="J3" toJunction="J0" end="1620" vehsPerHour="120.27585944979877"/>
  <flow id="JF50713" begin="1560" fromJunction="J3" toJunction="J2" end="1620" vehsPerHour="18.386449741990873"/>
  <flow id="JF50714" begin="1560" fromJunction="J3" toJunction="J4" end="1620" vehsPerHour="53.43867003355321"/>
  <flow id="JF50715" begin="1560" fromJunction="J4" toJunction="J0" end="1620" vehsPerHour="131.4294333630706"/>
  <flow id="JF50716" begin="1560" fromJunction="J4" toJunction="J2" end="1620" vehsPerHour="90.20857298034797"/>
  <flow id="JF50717" begin="1560" fromJunction="J4" toJunction="J3" end="1620" vehsPerHour="114.39028947633372"/>
  <flow id="JF50718" begin="1620" fromJunction="J0" toJunction="J2" end="1680" vehsPerHour="132.06172912570418"/>
  <flow id="JF50719" begin="1620" fromJunction="J0" toJunction="J3" end="1680" vehsPerHour="81.08505432776931"/>
  <flow id="JF50720" begin="1620" fromJunction="J0" toJunction="J4" end="1680" vehsPerHour="74.81718209388326"/>
  <flow id="JF50721" begin="1620" fromJunction="J2" toJunction="J0" end="1680" vehsPerHour="46.131270900134815"/>
  <flow id="JF50722" begin="1620" fromJunction="J2" toJunction="J4" end="1680" vehsPerHour="68.07448701448189"/>
  <flow id="JF50723" begin="1620" fromJunction="J3" toJunction="J0" end="1680" vehsPerHour="118.41028701199527"/>
  <flow id="JF50724" begin="1620" fromJunction="J3" toJunction="J2" end="1680" vehsPerHour="78.00534306045579"/>
  <flow id="JF50725" begin="1620" fromJunction="J3" toJunction="J4" end="1680" vehsPerHour="34.66608974721441"/>
  <flow id="JF50726" begin="1620" fromJunction="J4" toJunction="J0" end="1680" vehsPerHour="83.33511083095706"/>
  <flow id="JF50727" begin="1620" fromJunction="J4" toJunction="J2" end="1680" vehsPerHour="27.382999410560526"/>
  <flow id="JF50728" begin="1620" fromJunction="J4" toJunction="J3" end="1680" vehsPerHour="63.88004322842159"/>
  <flow id="JF50729" begin="1680" fromJunction="J0" toJunction="J2" end="1740" vehsPerHour="98.97487452249761"/>
  <flow id="JF50730" begin="1680" fromJunction="J0" toJunction="J4" end="1740" vehsPerHour="85.31981814087055"/>
  <flow id="JF50731" begin="1680" fromJunction="J2" toJunction="J0" end="1740" vehsPerHour="0.4099975869264938"/>
  <flow id="JF50732" begin="1680" fromJunction="J2" toJunction="J3" end="1740" vehsPerHour="30.382519391269337"/>
  <flow id="JF50733" begin="1680" fromJunction="J3" toJunction="J0" end="1740" vehsPerHour="117.93777775545497"/>
  <flow id="JF50734" begin="1680" fromJunction="J3" toJunction="J2" end="1740" vehsPerHour="24.071046795052865"/>
  <flow id="JF50735" begin="1680" fromJunction="J3" toJunction="J4" end="1740" vehsPerHour="90.38461814819145"/>
  <flow id="JF50736" begin="1680" fromJunction="J4" toJunction="J0" end="1740" vehsPerHour="72.906370110079"/>
  <flow id="JF50737" begin="1680" fromJunction="J4" toJunction="J2" end="1740" vehsPerHour="53.43056739285706"/>
  <flow id="JF50738" begin="1680" fromJunction="J4" toJunction="J3" end="1740" vehsPerHour="46.24922146972542"/>
  <flow id="JF50739" begin="1740" fromJunction="J2" toJunction="J0" end="1800" vehsPerHour="115.45161475498747"/>
  <flow id="JF50740" begin="1740" fromJunction="J2" toJunction="J3" end="1800" vehsPerHour="35.80727805511602"/>
  <flow id="JF50741" begin="1740" fromJunction="J2" toJunction="J4" end="1800" vehsPerHour="79.72600160658844"/>
  <flow id="JF50742" begin="1740" fromJunction="J4" toJunction="J0" end="1800" vehsPerHour="79.97778814357389"/>
  <flow id="JF50743" begin="1740" fromJunction="J4" toJunction="J2" end="1800" vehsPerHour="130.11846237409628"/>
  <flow id="JF50744" begin="1740" fromJunction="J4" toJunction="J3" end="1800" vehsPerHour="126.02715699189892"/>
  <flow id="JF50745" begin="1800" fromJunction="J0" toJunction="J3" end="1860" vehsPerHour="42.82617305499845"/>
  <flow id="JF50746" begin="1800" fromJunction="J0" toJunction="J4" end="1860" vehsPerHour="105.13775869709984"/>
  <flow id="JF50747" begin="1800" fromJunction="J2" toJunction="J4" end="1860" vehsPerHour="92.3158783285484"/>
  <flow id="JF50748" begin="1800" fromJunction="J3" toJunction="J0" end="1860" vehsPerHour="122.2247461430762"/>
  <flow id="JF50749" begin="1800" fromJunction="J3" toJunction="J2" end="1860" vehsPerHour="51.46217467671621"/>
  <flow id="JF50750" begin="1800" fromJunction="J3" toJunction="J4" end="1860" vehsPerHour="121.33692039784347"/>
  <flow id="JF50751" begin="1800" fromJunction="J4" toJunction="J0" end="1860" vehsPerHour="117.83127538700614"/>
  <flow id="JF50752" begin="1800" fromJunction="J4" toJunction="J2" end="1860" vehsPerHour="30.201906464212065"/>
  <flow id="JF50753" begin="1800" fromJunction="J4" toJunction="J3" end="1860" vehsPerHour="91.42412457632942"/>
  <flow id="JF50754" begin="1860" fromJunction="J0" toJunction="J2" end="1920" vehsPerHour="124.17378165737671"/>
  <flow id="JF50755" begin="1860" fromJunction="J0" toJunction="J3" end="1920" vehsPerHour="67.95848319349174"/>
  <flow id="JF50756" begin="1860" fromJunction="J2" toJunction="J3" end="1920" vehsPerHour="103.96871163625099"/>
  <flow id="JF50757" begin="1860" fromJunction="J2" toJunction="J4" end="1920" vehsPerHour="14.108849258035935"/>
  <flow id="JF50758" begin="1860" fromJunction="J3" toJunction="J4" end="1920" vehsPerHour="48.831339694937505"/>