<?xml version="1.0" encoding="UTF-8"?>
<configuration xmlns:xsi="http://www.w3.org/2001/XMLSchema-instance" xsi:noNamespaceSchemaLocation="http://sumo.dlr.de/xsd/sumoConfiguration.xsd">
    <input>
        <junction-taz value="true"/>
        <max-depart-delay value="5"/>
        <net-file value="network.net.xml"/>
        <route-files value="routes.rou.xml"/>
    </input>
</configuration>