<?xml version="1.0" encoding="UTF-8"?>
<routes xmlns:xsi="http://www.w3.org/2001/XMLSchema-instance" xsi:noNamespaceSchemaLocation="http://sumo.dlr.de/xsd/routes_file.xsd">
  <flow id="JF82045" begin="0" fromJunction="J0" toJunction="J3" end="60" vehsPerHour="113.65666086549041"/>
  <flow id="JF82046" begin="0" fromJunction="J0" toJunction="J4" end="60" vehsPerHour="58.82211780501609"/>
  <flow id="JF82047" begin="0" fromJunction="J3" toJunction="J4" end="60" vehsPerHour="56.03486484656845"/>
  <flow id="JF82048" begin="0" fromJunction="J3" toJunction="J5" end="60" vehsPerHour="30.694223311385787"/>
  <flow id="JF82049" begin="0" fromJunction="J3" toJunction="J6" end="60" vehsPerHour="80.16083118671666"/>
  <flow id="JF82050" begin="0" fromJunction="J3" toJunction="J7" end="60" vehsPerHour="69.57269273033468"/>
  <flow id="JF82051" begin="0" fromJunction="J4" toJunction="J3" end="60" vehsPerHour="9.33585560826994"/>
  <flow id="JF82052" begin="0" fromJunction="J4" toJunction="J6" end="60" vehsPerHour="37.63209034601139"/>
  <flow id="JF82053" begin="0" fromJunction="J4" toJunction="J7" end="60" vehsPerHour="60.27302529765473"/>
  <flow id="JF82054" begin="0" fromJunction="J5" toJunction="J0" end="60" vehsPerHour="16.645559947989824"/>
  <flow id="JF82055" begin="0" fromJunction="J5" toJunction="J7" end="60" vehsPerHour="11.27833240158182"/>
  <flow id="JF82056" begin="0" fromJunction="J6" toJunction="J3" end="60" vehsPerHour="58.44442310415276"/>
  <flow id="JF82057" begin="0" fromJunction="J6" toJunction="J4" end="60" vehsPerHour="55.10063533049517"/>
  <flow id="JF82058" begin="0" fromJunction="J7" toJunction="J3" end="60" vehsPerHour="39.841120728470884"/>
  <flow id="JF82059" begin="0" fromJunction="J7" toJunction="J4" end="60" vehsPerHour="10.821121754978567"/>
  <flow id="JF82060" begin="60" fromJunction="J0" toJunction="J3" end="120" vehsPerHour="133.2075919835585"/>
  <flow id="JF82061" begin="60" fromJunction="J0" toJunction="J5" end="120" vehsPerHour="98.78605428181662"/>
  <flow id="JF82062" begin="60" fromJunction="J0" toJunction="J6" end="120" vehsPerHour="109.34520642242195"/>
  <flow id="JF82063" begin="60" fromJunction="J0" toJunction="J7" end="120" vehsPerHour="91.4688194160555"/>
  <flow id="JF82064" begin="60" fromJunction="J3" toJunction="J0" end="120" vehsPerHour="48.803411594988056"/>
  <flow id="JF82065" begin="60" fromJunction="J3" toJunction="J4" end="120" vehsPerHour="88.33564220202415"/>
  <flow id="JF82066" begin="60" fromJunction="J3" toJunction="J5" end="120" vehsPerHour="79.34144669666071"/>
  <flow id="JF82067" begin="60" fromJunction="J3" toJunction="J7" end="120" vehsPerHour="33.26572355827415"/>
  <flow id="JF82068" begin="60" fromJunction="J4" toJunction="J0" end="120" vehsPerHour="52.932107019768395"/>
  <flow id="JF82069" begin="60" fromJunction="J4" toJunction="J3" end="120" vehsPerHour="45.90907321364409"/>
  <flow id="JF82070" begin="60" fromJunction="J5" toJunction="J3" end="120" vehsPerHour="6.037385242230142"/>
  <flow id="JF82071" begin="60" fromJunction="J5" toJunction="J6" end="120" vehsPerHour="13.44116965619644"/>
  <flow id="JF82072" begin="60" fromJunction="J5" toJunction="J7" end="120" vehsPerHour="16.46160908292374"/>
  <flow id="JF82073" begin="60" fromJunction="J6" toJunction="J3" end="120" vehsPerHour="36.2427998859992"/>
  <flow id="JF82074" begin="60" fromJunction="J6" toJunction="J4" end="120" vehsPerHour="37.3214416737069"/>
  <flow id="JF82075" begin="60" fromJunction="J6" toJunction="J5" end="120" vehsPerHour="31.18416769494773"/>
  <flow id="JF82076" begin="60" fromJunction="J6" toJunction="J7" end="120" vehsPerHour="67.89964314099723"/>
  <flow id="JF82077" begin="60" fromJunction="J7" toJunction="J0" end="120" vehsPerHour="20.189740312341062"/>
  <flow id="JF82078" begin="60" fromJunction="J7" toJunction="J3" end="120" vehsPerHour="58.96254555849998"/>
  <flow id="JF82079" begin="60" fromJunction="J7" toJunction="J4" end="120" vehsPerHour="56.583502636530575"/>
  <flow id="JF82080" begin="60" fromJunction="J7" toJunction="J5" end="120" vehsPerHour="4.404118513231956"/>
  <flow id="JF82081" begin="120" fromJunction="J0" toJunction="J3" end="180" vehsPerHour="87.48785223133844"/>
  <flow id="JF82082" begin="120" fromJunction="J0" toJunction="J4" end="180" vehsPerHour="9.783922660836193"/>
  <flow id="JF82083" begin="120" fromJunction="J0" toJunction="J5" end="180" vehsPerHour="57.84102560379412"/>
  <flow id="JF82084" begin="120" fromJunction="J0" toJunction="J6" end="180" vehsPerHour="11.486078440167184"/>
  <flow id="JF82085" begin="120" fromJunction="J3" toJunction="J0" end="180" vehsPerHour="35.79386476318224"/>
  <flow id="JF82086" begin="120" fromJunction="J3" toJunction="J4" end="180" vehsPerHour="44.5957129451377"/>
  <flow id="JF82087" begin="120" fromJunction="J3" toJunction="J5" end="180" vehsPerHour="122.01675597250383"/>
  <flow id="JF82088" begin="120" fromJunction="J3" toJunction="J6" end="180" vehsPerHour="89.21595273137349"/>
  <flow id="JF82089" begin="120" fromJunction="J4" toJunction="J3" end="180" vehsPerHour="66.25029992514403"/>
  <flow id="JF82090" begin="120" fromJunction="J4" toJunction="J6" end="180" vehsPerHour="12.328414952856066"/>
  <flow id="JF82091" begin="120" fromJunction="J5" toJunction="J4" end="180" vehsPerHour="54.72847057706359"/>
  <flow id="JF82092" begin="120" fromJunction="J5" toJunction="J6" end="180" vehsPerHour="56.833417903798875"/>
  <flow id="JF82093" begin="120" fromJunction="J5" toJunction="J7" end="180" vehsPerHour="4.503284049812618"/>
  <flow id="JF82094" begin="120" fromJunction="J6" toJunction="J3" end="180" vehsPerHour="68.22819930681857"/>
  <flow id="JF82095" begin="120" fromJunction="J6" toJunction="J5" end="180" vehsPerHour="10.021817879510312"/>
  <flow id="JF82096" begin="120" fromJunction="J7" toJunction="J0" end="180" vehsPerHour="21.97906404204188"/>
  <flow id="JF82097" begin="120" fromJunction="J7" toJunction="J3" end="180" vehsPerHour="66.33996266801516"/>
  <flow id="JF82098" begin="120" fromJunction="J7" toJunction="J4" end="180" vehsPerHour="46.59851909111881"/>
  <flow id="JF82099" begin="120" fromJunction="J7" toJunction="J5" end="180" vehsPerHour="34.71065696811368"/>
  <flow id="JF82100" begin="120" fromJunction="J7" toJunction="J6" end="180" vehsPerHour="23.42702434063053"/>
  <flow id="JF82101" begin="180" fromJunction="J0" toJunction="J3" end="240" vehsPerHour="112.34195879013879"/>
  <flow id="JF82102" begin="180" fromJunction="J0" toJunction="J4" end="240" vehsPerHour="54.93342467502356"/>
  <flow id="JF82103" begin="180" fromJunction="J0" toJunction="J5" end="240" vehsPerHour="136.12999811135205"/>
  <flow id="JF82104" begin="180" fromJunction="J0" toJunction="J6" end="240" vehsPerHour="135.4856779420019"/>
  <flow id="JF82105" begin="180" fromJunction="J0" toJunction="J7" end="240" vehsPerHour="1.4024694114904586"/>
  <flow id="JF82106" begin="180" fromJunction="J3" toJunction="J4" end="240" vehsPerHour="11.66634719195932"/>
  <flow id="JF82107" begin="180" fromJunction="J3" toJunction="J5" end="240" vehsPerHour="14.436410672355917"/>
  <flow id="JF82108" begin="180" fromJunction="J3" toJunction="J6" end="240" vehsPerHour="120.11021824738133"/>
  <flow id="JF82109" begin="180" fromJunction="J3" toJunction="J7" end="240" vehsPerHour="29.60250571321109"/>
  <flow id="JF82110" begin="180" fromJunction="J4" toJunction="J0" end="240" vehsPerHour="19.36776380230561"/>
  <flow id="JF82111" begin="180" fromJunction="J4" toJunction="J3" end="240" vehsPerHour="50.39949785356853"/>
  <flow id="JF82112" begin="180" fromJunction="J4" toJunction="J7" end="240" vehsPerHour="31.409839047977087"/>
  <flow id="JF82113" begin="180" fromJunction="J5" toJunction="J0" end="240" vehsPerHour="3.0467472501152626"/>
  <flow id="JF82114" begin="180" fromJunction="J5" toJunction="J3" end="240" vehsPerHour="1.9141962113299342"/>
  <flow id="JF82115" begin="180" fromJunction="J5" toJunction="J4" end="240" vehsPerHour="45.4910438142377"/>
  <flow id="JF82116" begin="180" fromJunction="J5" toJunction="J6" end="240" vehsPerHour="15.947884360067158"/>
  <flow id="JF82117" begin="180" fromJunction="J6" toJunction="J0" end="240" vehsPerHour="3.5149982350441262"/>
  <flow id="JF82118" begin="180" fromJunction="J6" toJunction="J3" end="240" vehsPerHour="43.3386387940021"/>
  <flow id="JF82119" begin="180" fromJunction="J6" toJunction="J4" end="240" vehsPerHour="35.09902764406178"/>
  <flow id="JF82120" begin="180" fromJunction="J6" toJunction="J5" end="240" vehsPerHour="47.706396861780284"/>
  <flow id="JF82121" begin="180" fromJunction="J7" toJunction="J3" end="240" vehsPerHour="63.8304329339832"/>
  <flow id="JF82122" begin="180" fromJunction="J7" toJunction="J4" end="240" vehsPerHour="47.988576793625775"/>
  <flow id="JF82123" begin="180" fromJunction="J7" toJunction="J5" end="240" vehsPerHour="48.9758849505384"/>
  <flow id="JF82124" begin="180" fromJunction="J7" toJunction="J6" end="240" vehsPerHour="52.72594073071611"/>
  <flow id="JF82125" begin="240" fromJunction="J0" toJunction="J6" end="300" vehsPerHour="125.02899745984197"/>
  <flow id="JF82126" begin="240" fromJunction="J0" toJunction="J7" end="300" vehsPerHour="43.94001852779479"/>
  <flow id="JF82127" begin="240" fromJunction="J3" toJunction="J0" end="300" vehsPerHour="116.5693116814464"/>
  <flow id="JF82128" begin="240" fromJunction="J3" toJunction="J5" end="300" vehsPerHour="120.69245032418095"/>
  <flow id="JF82129" begin="240" fromJunction="J3" toJunction="J7" end="300" vehsPerHour="0.7323549691767537"/>
  <flow id="JF82130" begin="240" fromJunction="J4" toJunction="J0" end="300" vehsPerHour="25.739444580781313"/>
  <flow id="JF82131" begin="240" fromJunction="J4" toJunction="J5" end="300" vehsPerHour="61.998276061645036"/>
  <flow id="JF82132" begin="240" fromJunction="J4" toJunction="J6" end="300" vehsPerHour="10.228938094964308"/>
  <flow id="JF82133" begin="240" fromJunction="J4" toJunction="J7" end="300" vehsPerHour="40.44558542953747"/>
  <flow id="JF82134" begin="240" fromJunction="J5" toJunction="J3" end="300" vehsPerHour="14.083412836264769"/>
  <flow id="JF82135" begin="240" fromJunction="J5" toJunction="J4" end="300" vehsPerHour="35.91455517317291"/>
  <flow id="JF82136" begin="240" fromJunction="J6" toJunction="J0" end="300" vehsPerHour="44.345517470325"/>
  <flow id="JF82137" begin="240" fromJunction="J6" toJunction="J5" end="300" vehsPerHour="54.94848036961279"/>
  <flow id="JF82138" begin="240" fromJunction="J6" toJunction="J7" end="300" vehsPerHour="33.990897835307194"/>
  <flow id="JF82139" begin="240" fromJunction="J7" toJunction="J0" end="300" vehsPerHour="6.359157374454574"/>
  <flow id="JF82140" begin="240" fromJunction="J7" toJunction="J3" end="300" vehsPerHour="58.77565270132494"/>
  <flow id="JF82141" begin="240" fromJunction="J7" toJunction="J6" end="300" vehsPerHour="28.151732615204708"/>
  <flow id="JF82142" begin="300" fromJunction="J0" toJunction="J3" end="360" vehsPerHour="107.6675961263448"/>
  <flow id="JF82143" begin="300" fromJunction="J0" toJunction="J4" end="360" vehsPerHour="116.75251003393701"/>
  <flow id="JF82144" begin="300" fromJunction="J0" toJunction="J5" end="360" vehsPerHour="118.50697327247555"/>
  <flow id="JF82145" begin="300" fromJunction="J0" toJunction="J6" end="360" vehsPerHour="23.90046851894262"/>
  <flow id="JF82146" begin="300" fromJunction="J0" toJunction="J7" end="360" vehsPerHour="103.66712973856386"/>
  <flow id="JF82147" begin="300" fromJunction="J3" toJunction="J5" end="360" vehsPerHour="108.16234847283553"/>
  <flow id="JF82148" begin="300" fromJunction="J3" toJunction="J6" end="360" vehsPerHour="109.89777999813998"/>
  <flow id="JF82149" begin="300" fromJunction="J3" toJunction="J7" end="360" vehsPerHour="83.4465467122838"/>
  <flow id="JF82150" begin="300" fromJunction="J4" toJunction="J3" end="360" vehsPerHour="37.43382758536615"/>
  <flow id="JF82151" begin="300" fromJunction="J4" toJunction="J6" end="360" vehsPerHour="48.0921822885548"/>
  <flow id="JF82152" begin="300" fromJunction="J5" toJunction="J0" end="360" vehsPerHour="42.02694796662747"/>
  <flow id="JF82153" begin="300" fromJunction="J5" toJunction="J3" end="360" vehsPerHour="20.37557875294584"/>
  <flow id="JF82154" begin="300" fromJunction="J5" toJunction="J4" end="360" vehsPerHour="14.250280647538387"/>
  <flow id="JF82155" begin="300" fromJunction="J5" toJunction="J6" end="360" vehsPerHour="62.27830582192793"/>
  <flow id="JF82156" begin="300" fromJunction="J5" toJunction="J7" end="360" vehsPerHour="1.1238990142486267"/>
  <flow id="JF82157" begin="300" fromJunction="J6" toJunction="J0" end="360" vehsPerHour="1.1979401360061128"/>
  <flow id="JF82158" begin="300" fromJunction="J6" toJunction="J3" end="360" vehsPerHour="33.728677378114824"/>
  <flow id="JF82159" begin="300" fromJunction="J6" toJunction="J4" end="360" vehsPerHour="56.73954254814581"/>
  <flow id="JF82160" begin="300" fromJunction="J6" toJunction="J5" end="360" vehsPerHour="51.947104356939626"/>
  <flow id="JF82161" begin="300" fromJunction="J6" toJunction="J7" end="360" vehsPerHour="48.23404903019305"/>
  <flow id="JF82162" begin="300" fromJunction="J7" toJunction="J0" end="360" vehsPerHour="36.94194101684537"/>
  <flow id="JF82163" begin="300" fromJunction="J7" toJunction="J5" end="360" vehsPerHour="5.034743457043521"/>
  <flow id="JF82164" begin="360" fromJunction="J0" toJunction="J3" end="420" vehsPerHour="99.82250550963872"/>
  <flow id="JF82165" begin="360" fromJunction="J0" toJunction="J4" end="420" vehsPerHour="95.78911576612946"/>
  <flow id="JF82166" begin="360" fromJunction="J0" toJunction="J5" end="420" vehsPerHour="24.571463563496792"/>
  <flow id="JF82167" begin="360" fromJunction="J0" toJunction="J6" end="420" vehsPerHour="129.78302708506067"/>
  <flow id="JF82168" begin="360" fromJunction="J3" toJunction="J0" end="420" vehsPerHour="113.05735299411381"/>
  <flow id="JF82169" begin="360" fromJunction="J3" toJunction="J4" end="420" vehsPerHour="75.94316937946267"/>
  <flow id="JF82170" begin="360" fromJunction="J3" toJunction="J5" end="420" vehsPerHour="66.84942334174953"/>
  <flow id="JF82171" begin="360" fromJunction="J3" toJunction="J6" end="420" vehsPerHour="63.26079200009307"/>
  <flow id="JF82172" begin="360" fromJunction="J4" toJunction="J0" end="420" vehsPerHour="60.61145662202236"/>
  <flow id="JF82173" begin="360" fromJunction="J4" toJunction="J5" end="420" vehsPerHour="0.27450480428677093"/>
  <flow id="JF82174" begin="360" fromJunction="J4" toJunction="J7" end="420" vehsPerHour="32.762592244284775"/>
  <flow id="JF82175" begin="360" fromJunction="J5" toJunction="J0" end="420" vehsPerHour="64.31935974764629"/>
  <flow id="JF82176" begin="360" fromJunction="J5" toJunction="J3" end="420" vehsPerHour="0.832886544232079"/>
  <flow id="JF82177" begin="360" fromJunction="J5" toJunction="J4" end="420" vehsPerHour="48.488596265808894"/>
  <flow id="JF82178" begin="360" fromJunction="J5" toJunction="J6" end="420" vehsPerHour="53.06549871137324"/>
  <flow id="JF82179" begin="360" fromJunction="J6" toJunction="J0" end="420" vehsPerHour="45.740365018656455"/>
  <flow id="JF82180" begin="360" fromJunction="J6" toJunction="J3" end="420" vehsPerHour="52.852612571747464"/>
  <flow id="JF82181" begin="360" fromJunction="J6" toJunction="J4" end="420" vehsPerHour="15.426372640835135"/>
  <flow id="JF82182" begin="360" fromJunction="J6" toJunction="J7" end="420" vehsPerHour="45.05062130583313"/>
  <flow id="JF82183" begin="360" fromJunction="J7" toJunction="J0" end="420" vehsPerHour="50.55660115284162"/>
  <flow id="JF82184" begin="360" fromJunction="J7" toJunction="J3" end="420" vehsPerHour="38.701994013444626"/>
  <flow id="JF82185" begin="360" fromJunction="J7" toJunction="J4" end="420" vehsPerHour="12.696329853341878"/>
  <flow id="JF82186" begin="360" fromJunction="J7" toJunction="J5" end="420" vehsPerHour="34.869403485486025"/>
  <flow id="JF82187" begin="420" fromJunction="J0" toJunction="J5" end="480" vehsPerHour="70.59853791662441"/>
  <flow id="JF82188" begin="420" fromJunction="J0" toJunction="J6" end="480" vehsPerHour="130.33870519570257"/>
  <flow id="JF82189" begin="420" fromJunction="J3" toJunction="J4" end="480" vehsPerHour="131.71810785349734"/>
  <flow id="JF82190" begin="420" fromJunction="J3" toJunction="J5" end="480" vehsPerHour="35.829673826366346"/>
  <flow id="JF82191" begin="420" fromJunction="J4" toJunction="J0" end="480" vehsPerHour="27.444759688706373"/>
  <flow id="JF82192" begin="420" fromJunction="J4" toJunction="J3" end="480" vehsPerHour="11.608388270991155"/>
  <flow id="JF82193" begin="420" fromJunction="J4" toJunction="J5" end="480" vehsPerHour="64.57550220794406"/>
  <flow id="JF82194" begin="420" fromJunction="J4" toJunction="J6" end="480" vehsPerHour="0.07649816481670917"/>
  <flow id="JF82195" begin="420" fromJunction="J4" toJunction="J7" end="480" vehsPerHour="29.577982800912057"/>
  <flow id="JF82196" begin="420" fromJunction="J5" toJunction="J3" end="480" vehsPerHour="55.20444651288076"/>
  <flow id="JF82197" begin="420" fromJunction="J5" toJunction="J4" end="480" vehsPerHour="12.202864697378917"/>
  <flow id="JF82198" begin="420" fromJunction="J5" toJunction="J7" end="480" vehsPerHour="36.188041044246674"/>
  <flow id="JF82199" begin="420" fromJunction="J6" toJunction="J0" end="480" vehsPerHour="22.806843463269534"/>
  <flow id="JF82200" begin="420" fromJunction="J6" toJunction="J3" end="480" vehsPerHour="36.717052331546135"/>
  <flow id="JF82201" begin="420" fromJunction="J6" toJunction="J4" end="480" vehsPerHour="46.586311878040185"/>
  <flow id="JF82202" begin="420" fromJunction="J6" toJunction="J5" end="480" vehsPerHour="9.18673769835479"/>
  <flow id="JF82203" begin="420" fromJunction="J7" toJunction="J0" end="480" vehsPerHour="19.72544930445962"/>
  <flow id="JF82204" begin="420" fromJunction="J7" toJunction="J3" end="480" vehsPerHour="49.91789122383239"/>
  <flow id="JF82205" begin="420" fromJunction="J7" toJunction="J6" end="480" vehsPerHour="34.882523946057034"/>
  <flow id="JF82206" begin="480" fromJunction="J0" toJunction="J3" end="540" vehsPerHour="18.643962169162617"/>
  <flow id="JF82207" begin="480" fromJunction="J0" toJunction="J5" end="540" vehsPerHour="64.60593392118243"/>
  <flow id="JF82208" begin="480" fromJunction="J0" toJunction="J6" end="540" vehsPerHour="41.75965395695827"/>
  <flow id="JF82209" begin="480" fromJunction="J0" toJunction="J7" end="540" vehsPerHour="64.77852435232585"/>
  <flow id="JF82210" begin="480" fromJunction="J3" toJunction="J0" end="540" vehsPerHour="60.13129108111317"/>
  <flow id="JF82211" begin="480" fromJunction="J3" toJunction="J4" end="540" vehsPerHour="11.52126124131724"/>
  <flow id="JF82212" begin="480" fromJunction="J3" toJunction="J5" end="540" vehsPerHour="4.721861630627834"/>
  <flow id="JF82213" begin="480" fromJunction="J3" toJunction="J6" end="540" vehsPerHour="97.20450720511546"/>
  <flow id="JF82214" begin="480" fromJunction="J3" toJunction="J7" end="540" vehsPerHour="75.18990117267165"/>
  <flow id="JF82215" begin="480" fromJunction="J4" toJunction="J0" end="540" vehsPerHour="13.963544012523796"/>
  <flow id="JF82216" begin="480" fromJunction="J4" toJunction="J3" end="540" vehsPerHour="61.43054864771343"/>
  <flow id="JF82217" begin="480" fromJunction="J4" toJunction="J5" end="540" vehsPerHour="55.60947542755685"/>
  <flow id="JF82218" begin="480" fromJunction="J4" toJunction="J6" end="540" vehsPerHour="57.61319899655016"/>
  <flow id="JF82219" begin="480" fromJunction="J5" toJunction="J3" end="540" vehsPerHour="40.51471198790265"/>
  <flow id="JF82220" begin="480" fromJunction="J5" toJunction="J6" end="540" vehsPerHour="6.224995762558694"/>
  <flow id="JF82221" begin="480" fromJunction="J5" toJunction="J7" end="540" vehsPerHour="19.271992615841523"/>
  <flow id="JF82222" begin="480" fromJunction="J6" toJunction="J3" end="540" vehsPerHour="68.48464978948454"/>
  <flow id="JF82223" begin="480" fromJunction="J6" toJunction="J5" end="540" vehsPerHour="36.765234636395896"/>
  <flow id="JF82224" begin="480" fromJunction="J6" toJunction="J7" end="540" vehsPerHour="49.38547794440113"/>
  <flow id="JF82225" begin="480" fromJunction="J7" toJunction="J0" end="540" vehsPerHour="34.30823510555513"/>
  <flow id="JF82226" begin="480" fromJunction="J7" toJunction="J3" end="540" vehsPerHour="64.57972044805427"/>
  <flow id="JF82227" begin="480" fromJunction="J7" toJunction="J4" end="540" vehsPerHour="38.61617122893876"/>
  <flow id="JF82228" begin="480" fromJunction="J7" toJunction="J5" end="540" vehsPerHour="9.00294583761238"/>
  <flow id="JF82229" begin="480" fromJunction="J7" toJunction="J6" end="540" vehsPerHour="25.60919499411199"/>
  <flow id="JF82230" begin="540" fromJunction="J0" toJunction="J3" end="600" vehsPerHour="84.44993007274729"/>
  <flow id="JF82231" begin="540" fromJunction="J0" toJunction="J5" end="600" vehsPerHour="35.456512859851074"/>
  <flow id="JF82232" begin="540" fromJunction="J0" toJunction="J6" end="600" vehsPerHour="111.78086254005319"/>
  <flow id="JF82233" begin="540" fromJunction="J3" toJunction="J0" end="600" vehsPerHour="113.2260079606726"/>
  <flow id="JF82234" begin="540" fromJunction="J3" toJunction="J4" end="600" vehsPerHour="88.19740754098696"/>
  <flow id="JF82235" begin="540" fromJunction="J3" toJunction="J6" end="600" vehsPerHour="64.91537952259458"/>
  <flow id="JF82236" begin="540" fromJunction="J4" toJunction="J0" end="600" vehsPerHour="62.00121608197457"/>
  <flow id="JF82237" begin="540" fromJunction="J4" toJunction="J6" end="600" vehsPerHour="13.061640639140956"/>
  <flow id="JF82238" begin="540" fromJunction="J4" toJunction="J7" end="600" vehsPerHour="46.289093405546026"/>
  <flow id="JF82239" begin="540" fromJunction="J5" toJunction="J4" end="600" vehsPerHour="26.316249223826997"/>
  <flow id="JF82240" begin="540" fromJunction="J5" toJunction="J7" end="600" vehsPerHour="12.446840409498053"/>
  <flow id="JF82241" begin="540" fromJunction="J6" toJunction="J0" end="600" vehsPerHour="49.29887933935889"/>
  <flow id="JF82242" begin="540" fromJunction="J6" toJunction="J3" end="600" vehsPerHour="7.525893811083426"/>
  <flow id="JF82243" begin="540" fromJunction="J6" toJunction="J4" end="600" vehsPerHour="10.673605517890978"/>
  <flow id="JF82244" begin="540" fromJunction="J6" toJunction="J7" end="600" vehsPerHour="2.8968613114479287"/>
  <flow id="JF82245" begin="540" fromJunction="J7" toJunction="J3" end="600" vehsPerHour="18.835689668538823"/>
  <flow id="JF82246" begin="540" fromJunction="J7" toJunction="J4" end="600" vehsPerHour="0.5877668777291276"/>
  <flow id="JF82247" begin="540" fromJunction="J7" toJunction="J5" end="600" vehsPerHour="21.406835809634256"/>
  <flow id="JF82248" begin="600" fromJunction="J0" toJunction="J3" end="660" vehsPerHour="113.46016797036799"/>
  <flow id="JF82249" begin="600" fromJunction="J0" toJunction="J4" end="660" vehsPerHour="116.32762887202617"/>
  <flow id="JF82250" begin="600" fromJunction="J0" toJunction="J5" end="660" vehsPerHour="116.5383448956809"/>
  <flow id="JF82251" begin="600" fromJunction="J0" toJunction="J6" end="660" vehsPerHour="92.89764451721662"/>
  <flow id="JF82252" begin="600" fromJunction="J3" toJunction="J0" end="660" vehsPerHour="45.83185717030877"/>
  <flow id="JF82253" begin="600" fromJunction="J3" toJunction="J4" end="660" vehsPerHour="46.50663948778864"/>
  <flow id="JF82254" begin="600" fromJunction="J3" toJunction="J5" end="660" vehsPerHour="61.12081066774984"/>
  <flow id="JF82255" begin="600" fromJunction="J3" toJunction="J6" end="660" vehsPerHour="60.071796890797465"/>
  <flow id="JF82256" begin="600" fromJunction="J4" toJunction="J0" end="660" vehsPerHour="10.727023850118377"/>
  <flow id="JF82257" begin="600" fromJunction="J4" toJunction="J3" end="660" vehsPerHour="29.358705620381027"/>
  <flow id="JF82258" begin="600" fromJunction="J4" toJunction="J5" end="660" vehsPerHour="12.957714428743834"/>
  <flow id="JF82259" begin="600" fromJunction="J5" toJunction="J0" end="660" vehsPerHour="44.38242216813865"/>
  <flow id="JF82260" begin="600" fromJunction="J5" toJunction="J3" end="660" vehsPerHour="64.7720457260327"/>
  <flow id="JF82261" begin="600" fromJunction="J5" toJunction="J4" end="660" vehsPerHour="18.640234178416502"/>
  <flow id="JF82262" begin="600" fromJunction="J5" toJunction="J6" end="660" vehsPerHour="53.94419062482881"/>
  <flow id="JF82263" begin="600" fromJunction="J5" toJunction="J7" end="660" vehsPerHour="19.025777902234502"/>
  <flow id="JF82264" begin="600" fromJunction="J6" toJunction="J0" end="660" vehsPerHour="32.4169612372381"/>
  <flow id="JF82265" begin="600" fromJunction="J6" toJunction="J3" end="660" vehsPerHour="27.45741301370539"/>
  <flow id="JF82266" begin="600" fromJunction="J6" toJunction="J4" end="660" vehsPerHour="39.184872705479634"/>
  <flow id="JF82267" begin="600" fromJunction="J6" toJunction="J5" end="660" vehsPerHour="44.68693682883061"/>
  <flow id="JF82268" begin="600" fromJunction="J6" toJunction="J7" end="660" vehsPerHour="43.085172045129596"/>
  <flow id="JF82269" begin="600" fromJunction="J7" toJunction="J0" end="660" vehsPerHour="56.86954882643562"/>
  <flow id="JF82270" begin="600" fromJunction="J7" toJunction="J3" end="660" vehsPerHour="13.57301393710453"/>
  <flow id="JF82271" begin="600" fromJunction="J7" toJunction="J4" end="660" vehsPerHour="56.65519452390179"/>
  <flow id="JF82272" begin="600" fromJunction="J7" toJunction="J5" end="660" vehsPerHour="28.16902532039112"/>
  <flow id="JF82273" begin="600" fromJunction="J7" toJunction="J6" end="660" vehsPerHour="48.398791048826"/>
  <flow id="JF82274" begin="660" fromJunction="J0" toJunction="J3" end="720" vehsPerHour="0.48738969933829723"/>
  <flow id="JF82275" begin="660" fromJunction="J0" toJunction="J4" end="720" vehsPerHour="3.04295007367263"/>
  <flow id="JF82276" begin="660" fromJunction="J0" toJunction="J5" end="720" vehsPerHour="104.59175011616244"/>
  <flow id="JF82277" begin="660" fromJunction="J0" toJunction="J6" end="720" vehsPerHour="107.97880412443355"/>
  <flow id="JF82278" begin="660" fromJunction="J0" toJunction="J7" end="720" vehsPerHour="51.64223905875687"/>
  <flow id="JF82279" begin="660" fromJunction="J3" toJunction="J0" end="720" vehsPerHour="86.13885408985381"/>
  <flow id="JF82280" begin="660" fromJunction="J3" toJunction="J4" end="720" vehsPerHour="123.20641957634652"/>
  <flow id="JF82281" begin="660" fromJunction="J3" toJunction="J5" end="720" vehsPerHour="33.15315376800123"/>
  <flow id="JF82282" begin="660" fromJunction="J3" toJunction="J7" end="720" vehsPerHour="71.13523987733417"/>
  <flow id="JF82283" begin="660" fromJunction="J4" toJunction="J0" end="720" vehsPerHour="25.553654012775215"/>
  <flow id="JF82284" begin="660" fromJunction="J4" toJunction="J3" end="720" vehsPerHour="31.547275908531436"/>
  <flow id="JF82285" begin="660" fromJunction="J4" toJunction="J7" end="720" vehsPerHour="32.18481339962832"/>
  <flow id="JF82286" begin="660" fromJunction="J5" toJunction="J0" end="720" vehsPerHour="35.110468024300374"/>
  <flow id="JF82287" begin="660" fromJunction="J5" toJunction="J3" end="720" vehsPerHour="42.030212308409446"/>
  <flow id="JF82288" begin="660" fromJunction="J5" toJunction="J4" end="720" vehsPerHour="60.164818970827305"/>
  <flow id="JF82289" begin="660" fromJunction="J5" toJunction="J6" end="720" vehsPerHour="54.141960935573195"/>
  <flow id="JF82290" begin="660" fromJunction="J5" toJunction="J7" end="720" vehsPerHour="59.26622460316994"/>
  <flow id="JF82291" begin="660" fromJunction="J6" toJunction="J0" end="720" vehsPerHour="39.187980405995646"/>
  <flow id="JF82292" begin="660" fromJunction="J6" toJunction="J4" end="720" vehsPerHour="18.865349141557648"/>
  <flow id="JF82293" begin="660" fromJunction="J7" toJunction="J0" end="720" vehsPerHour="15.538061796028371"/>
  <flow id="JF82294" begin="660" fromJunction="J7" toJunction="J3" end="720" vehsPerHour="61.18290007245607"/>
  <flow id="JF82295" begin="660" fromJunction="J7" toJunction="J4" end="720" vehsPerHour="10.171989226122681"/>
  <flow id="JF82296" begin="660" fromJunction="J7" toJunction="J5" end="720" vehsPerHour="54.13172529966308"/>
  <flow id="JF82297" begin="660" fromJunction="J7" toJunction="J6" end="720" vehsPerHour="0.513904931296746"/>
  <flow id="JF82298" begin="720" fromJunction="J0" toJunction="J3" end="780" vehsPerHour="69.58047290928808"/>
  <flow id="JF82299" begin="720" fromJunction="J0" toJunction="J4" end="780" vehsPerHour="35.649611375600166"/>
  <flow id="JF82300" begin="720" fromJunction="J0" toJunction="J5" end="780" vehsPerHour="133.59031307299907"/>
  <flow id="JF82301" begin="720" fromJunction="J0" toJunction="J6" end="780" vehsPerHour="75.06977949086746"/>
  <flow id="JF82302" begin="720" fromJunction="J0" toJunction="J7" end="780" vehsPerHour="110.65119052717024"/>
  <flow id="JF82303" begin="720" fromJunction="J3" toJunction="J0" end="780" vehsPerHour="81.84885836827695"/>
  <flow id="JF82304" begin="720" fromJunction="J3" toJunction="J4" end="780" vehsPerHour="105.81448407331186"/>
  <flow id="JF82305" begin="720" fromJunction="J3" toJunction="J5" end="780" vehsPerHour="119.38407715005675"/>
  <flow id="JF82306" begin="720" fromJunction="J3" toJunction="J6" end="780" vehsPerHour="29.37981822851558"/>
  <flow id="JF82307" begin="720" fromJunction="J3" toJunction="J7" end="780" vehsPerHour="104.55961583814576"/>
  <flow id="JF82308" begin="720" fromJunction="J4" toJunction="J0" end="780" vehsPerHour="61.06697620382465"/>
  <flow id="JF82309" begin="720" fromJunction="J4" toJunction="J3" end="780" vehsPerHour="1.3916401776538054"/>
  <flow id="JF82310" begin="720" fromJunction="J4" toJunction="J5" end="780" vehsPerHour="43.015611813266084"/>
  <flow id="JF82311" begin="720" fromJunction="J4" toJunction="J7" end="780" vehsPerHour="63.226714089018294"/>
  <flow id="JF82312" begin="720" fromJunction="J5" toJunction="J3" end="780" vehsPerHour="9.650049588007269"/>