<?xml version="1.0" encoding="UTF-8"?>
<routes xmlns:xsi="http://www.w3.org/2001/XMLSchema-instance" xsi:noNamespaceSchemaLocation="http://sumo.dlr.de/xsd/routes_file.xsd">
  <flow id="JF87318" begin="0" fromJunction="J0" toJunction="J3" end="60" vehsPerHour="75.94436683333875"/>
  <flow id="JF87319" begin="0" fromJunction="J0" toJunction="J4" end="60" vehsPerHour="115.20114856078166"/>
  <flow id="JF87320" begin="0" fromJunction="J0" toJunction="J5" end="60" vehsPerHour="89.69894034943653"/>
  <flow id="JF87321" begin="0" fromJunction="J0" toJunction="J6" end="60" vehsPerHour="102.42439996086766"/>
  <flow id="JF87322" begin="0" fromJunction="J0" toJunction="J7" end="60" vehsPerHour="8.52861048841675"/>
  <flow id="JF87323" begin="0" fromJunction="J3" toJunction="J6" end="60" vehsPerHour="25.196734862058907"/>
  <flow id="JF87324" begin="0" fromJunction="J3" toJunction="J7" end="60" vehsPerHour="96.74601874523945"/>
  <flow id="JF87325" begin="0" fromJunction="J4" toJunction="J0" end="60" vehsPerHour="5.8456286395821735"/>
  <flow id="JF87326" begin="0" fromJunction="J4" toJunction="J3" end="60" vehsPerHour="22.636835985102614"/>
  <flow id="JF87327" begin="0" fromJunction="J5" toJunction="J3" end="60" vehsPerHour="8.307199596913259"/>
  <flow id="JF87328" begin="0" fromJunction="J6" toJunction="J0" end="60" vehsPerHour="2.149473473717811"/>
  <flow id="JF87329" begin="0" fromJunction="J6" toJunction="J4" end="60" vehsPerHour="5.451542468596027"/>
  <flow id="JF87330" begin="0" fromJunction="J6" toJunction="J5" end="60" vehsPerHour="22.744252749991883"/>
  <flow id="JF87331" begin="0" fromJunction="J6" toJunction="J7" end="60" vehsPerHour="9.923903988933384"/>
  <flow id="JF87332" begin="0" fromJunction="J7" toJunction="J0" end="60" vehsPerHour="13.478849121055433"/>
  <flow id="JF87333" begin="0" fromJunction="J7" toJunction="J3" end="60" vehsPerHour="1.7923860571432246"/>
  <flow id="JF87334" begin="0" fromJunction="J7" toJunction="J4" end="60" vehsPerHour="26.724575987444126"/>
  <flow id="JF87335" begin="0" fromJunction="J7" toJunction="J5" end="60" vehsPerHour="18.409796702572066"/>
  <flow id="JF87336" begin="0" fromJunction="J7" toJunction="J6" end="60" vehsPerHour="3.420062887678873"/>
  <flow id="JF87337" begin="60" fromJunction="J0" toJunction="J3" end="120" vehsPerHour="65.47320515592718"/>
  <flow id="JF87338" begin="60" fromJunction="J0" toJunction="J5" end="120" vehsPerHour="2.406141832486515"/>
  <flow id="JF87339" begin="60" fromJunction="J0" toJunction="J6" end="120" vehsPerHour="136.03508655335958"/>
  <flow id="JF87340" begin="60" fromJunction="J3" toJunction="J0" end="120" vehsPerHour="66.68007521712784"/>
  <flow id="JF87341" begin="60" fromJunction="J3" toJunction="J7" end="120" vehsPerHour="49.72691648783106"/>
  <flow id="JF87342" begin="60" fromJunction="J4" toJunction="J0" end="120" vehsPerHour="67.32181086295716"/>
  <flow id="JF87343" begin="60" fromJunction="J4" toJunction="J6" end="120" vehsPerHour="52.97982035879247"/>
  <flow id="JF87344" begin="60" fromJunction="J4" toJunction="J7" end="120" vehsPerHour="68.40683813402443"/>
  <flow id="JF87345" begin="60" fromJunction="J5" toJunction="J6" end="120" vehsPerHour="39.20360081294636"/>
  <flow id="JF87346" begin="60" fromJunction="J5" toJunction="J7" end="120" vehsPerHour="60.946620921054915"/>
  <flow id="JF87347" begin="60" fromJunction="J6" toJunction="J3" end="120" vehsPerHour="49.160912684759396"/>
  <flow id="JF87348" begin="60" fromJunction="J6" toJunction="J5" end="120" vehsPerHour="33.42493622679163"/>
  <flow id="JF87349" begin="60" fromJunction="J7" toJunction="J0" end="120" vehsPerHour="21.88234627163557"/>
  <flow id="JF87350" begin="60" fromJunction="J7" toJunction="J3" end="120" vehsPerHour="26.134509632203198"/>
  <flow id="JF87351" begin="60" fromJunction="J7" toJunction="J4" end="120" vehsPerHour="41.13942450941836"/>
  <flow id="JF87352" begin="60" fromJunction="J7" toJunction="J5" end="120" vehsPerHour="43.45809403617453"/>
  <flow id="JF87353" begin="120" fromJunction="J0" toJunction="J3" end="180" vehsPerHour="43.09447987983248"/>
  <flow id="JF87354" begin="120" fromJunction="J0" toJunction="J4" end="180" vehsPerHour="35.387106974236254"/>
  <flow id="JF87355" begin="120" fromJunction="J0" toJunction="J5" end="180" vehsPerHour="57.07908270193979"/>
  <flow id="JF87356" begin="120" fromJunction="J0" toJunction="J6" end="180" vehsPerHour="123.24530052460821"/>
  <flow id="JF87357" begin="120" fromJunction="J0" toJunction="J7" end="180" vehsPerHour="74.59579367241402"/>
  <flow id="JF87358" begin="120" fromJunction="J3" toJunction="J0" end="180" vehsPerHour="108.66041570817761"/>
  <flow id="JF87359" begin="120" fromJunction="J3" toJunction="J4" end="180" vehsPerHour="95.04813074344284"/>
  <flow id="JF87360" begin="120" fromJunction="J3" toJunction="J5" end="180" vehsPerHour="33.772098624313394"/>
  <flow id="JF87361" begin="120" fromJunction="J3" toJunction="J7" end="180" vehsPerHour="98.93961495098165"/>
  <flow id="JF87362" begin="120" fromJunction="J4" toJunction="J0" end="180" vehsPerHour="7.139421963778275"/>
  <flow id="JF87363" begin="120" fromJunction="J5" toJunction="J4" end="180" vehsPerHour="62.85411374230297"/>
  <flow id="JF87364" begin="120" fromJunction="J6" toJunction="J0" end="180" vehsPerHour="51.89795244529504"/>
  <flow id="JF87365" begin="120" fromJunction="J6" toJunction="J7" end="180" vehsPerHour="3.6114099749862194"/>
  <flow id="JF87366" begin="120" fromJunction="J7" toJunction="J0" end="180" vehsPerHour="34.30598885606045"/>
  <flow id="JF87367" begin="120" fromJunction="J7" toJunction="J4" end="180" vehsPerHour="43.16754743365945"/>
  <flow id="JF87368" begin="120" fromJunction="J7" toJunction="J5" end="180" vehsPerHour="41.30043680910188"/>
  <flow id="JF87369" begin="180" fromJunction="J0" toJunction="J3" end="240" vehsPerHour="136.03664545449632"/>
  <flow id="JF87370" begin="180" fromJunction="J0" toJunction="J4" end="240" vehsPerHour="50.67377143037388"/>
  <flow id="JF87371" begin="180" fromJunction="J0" toJunction="J5" end="240" vehsPerHour="67.63001755040906"/>
  <flow id="JF87372" begin="180" fromJunction="J0" toJunction="J6" end="240" vehsPerHour="0.9600658214780844"/>
  <flow id="JF87373" begin="180" fromJunction="J0" toJunction="J7" end="240" vehsPerHour="25.384940236943542"/>
  <flow id="JF87374" begin="180" fromJunction="J3" toJunction="J0" end="240" vehsPerHour="24.037902417873852"/>
  <flow id="JF87375" begin="180" fromJunction="J3" toJunction="J4" end="240" vehsPerHour="121.4640473333423"/>
  <flow id="JF87376" begin="180" fromJunction="J3" toJunction="J5" end="240" vehsPerHour="73.97929277083644"/>
  <flow id="JF87377" begin="180" fromJunction="J3" toJunction="J6" end="240" vehsPerHour="12.062423126333222"/>
  <flow id="JF87378" begin="180" fromJunction="J3" toJunction="J7" end="240" vehsPerHour="2.551714723118478"/>
  <flow id="JF87379" begin="180" fromJunction="J4" toJunction="J0" end="240" vehsPerHour="31.822700747515906"/>
  <flow id="JF87380" begin="180" fromJunction="J4" toJunction="J3" end="240" vehsPerHour="58.18578155532306"/>
  <flow id="JF87381" begin="180" fromJunction="J4" toJunction="J5" end="240" vehsPerHour="43.70607114642624"/>
  <flow id="JF87382" begin="180" fromJunction="J4" toJunction="J6" end="240" vehsPerHour="25.911958064477208"/>
  <flow id="JF87383" begin="180" fromJunction="J4" toJunction="J7" end="240" vehsPerHour="39.80233183711282"/>
  <flow id="JF87384" begin="180" fromJunction="J5" toJunction="J0" end="240" vehsPerHour="6.8034357266103305"/>
  <flow id="JF87385" begin="180" fromJunction="J5" toJunction="J3" end="240" vehsPerHour="22.210129859909152"/>
  <flow id="JF87386" begin="180" fromJunction="J5" toJunction="J7" end="240" vehsPerHour="50.6309578550565"/>
  <flow id="JF87387" begin="180" fromJunction="J6" toJunction="J0" end="240" vehsPerHour="9.571234413317889"/>
  <flow id="JF87388" begin="180" fromJunction="J6" toJunction="J4" end="240" vehsPerHour="18.843904272761634"/>
  <flow id="JF87389" begin="180" fromJunction="J6" toJunction="J7" end="240" vehsPerHour="14.396232760386669"/>
  <flow id="JF87390" begin="180" fromJunction="J7" toJunction="J5" end="240" vehsPerHour="42.42151131510709"/>
  <flow id="JF87391" begin="180" fromJunction="J7" toJunction="J6" end="240" vehsPerHour="12.517754665097776"/>
  <flow id="JF87392" begin="240" fromJunction="J0" toJunction="J3" end="300" vehsPerHour="100.46873229670629"/>
  <flow id="JF87393" begin="240" fromJunction="J0" toJunction="J4" end="300" vehsPerHour="131.7058394363451"/>
  <flow id="JF87394" begin="240" fromJunction="J0" toJunction="J5" end="300" vehsPerHour="90.35496352745764"/>
  <flow id="JF87395" begin="240" fromJunction="J0" toJunction="J6" end="300" vehsPerHour="62.854948883429216"/>
  <flow id="JF87396" begin="240" fromJunction="J0" toJunction="J7" end="300" vehsPerHour="0.2929764619895965"/>
  <flow id="JF87397" begin="240" fromJunction="J3" toJunction="J0" end="300" vehsPerHour="78.09242603867513"/>
  <flow id="JF87398" begin="240" fromJunction="J3" toJunction="J5" end="300" vehsPerHour="56.072957719531544"/>
  <flow id="JF87399" begin="240" fromJunction="J3" toJunction="J6" end="300" vehsPerHour="19.82770478782184"/>
  <flow id="JF87400" begin="240" fromJunction="J4" toJunction="J3" end="300" vehsPerHour="38.44850924394388"/>
  <flow id="JF87401" begin="240" fromJunction="J4" toJunction="J6" end="300" vehsPerHour="30.10031523160974"/>
  <flow id="JF87402" begin="240" fromJunction="J4" toJunction="J7" end="300" vehsPerHour="37.939619760018545"/>
  <flow id="JF87403" begin="240" fromJunction="J5" toJunction="J0" end="300" vehsPerHour="22.183948353059286"/>
  <flow id="JF87404" begin="240" fromJunction="J5" toJunction="J3" end="300" vehsPerHour="48.672370144465326"/>
  <flow id="JF87405" begin="240" fromJunction="J5" toJunction="J4" end="300" vehsPerHour="52.83426928446345"/>
  <flow id="JF87406" begin="240" fromJunction="J5" toJunction="J6" end="300" vehsPerHour="11.58060853397792"/>
  <flow id="JF87407" begin="240" fromJunction="J5" toJunction="J7" end="300" vehsPerHour="46.06220549905978"/>
  <flow id="JF87408" begin="240" fromJunction="J6" toJunction="J0" end="300" vehsPerHour="50.668463928240755"/>
  <flow id="JF87409" begin="240" fromJunction="J6" toJunction="J3" end="300" vehsPerHour="41.27133613217504"/>
  <flow id="JF87410" begin="240" fromJunction="J6" toJunction="J4" end="300" vehsPerHour="29.98689686177472"/>
  <flow id="JF87411" begin="240" fromJunction="J6" toJunction="J5" end="300" vehsPerHour="18.08485483803359"/>
  <flow id="JF87412" begin="240" fromJunction="J7" toJunction="J0" end="300" vehsPerHour="62.88867594643"/>
  <flow id="JF87413" begin="240" fromJunction="J7" toJunction="J4" end="300" vehsPerHour="26.75916099484502"/>
  <flow id="JF87414" begin="240" fromJunction="J7" toJunction="J5" end="300" vehsPerHour="27.306243515382697"/>
  <flow id="JF87415" begin="240" fromJunction="J7" toJunction="J6" end="300" vehsPerHour="9.550385750945068"/>
  <flow id="JF87416" begin="300" fromJunction="J0" toJunction="J4" end="360" vehsPerHour="91.62727892089137"/>
  <flow id="JF87417" begin="300" fromJunction="J0" toJunction="J5" end="360" vehsPerHour="26.530742928587856"/>
  <flow id="JF87418" begin="300" fromJunction="J0" toJunction="J6" end="360" vehsPerHour="21.4170755394018"/>
  <flow id="JF87419" begin="300" fromJunction="J3" toJunction="J0" end="360" vehsPerHour="131.08459758667297"/>
  <flow id="JF87420" begin="300" fromJunction="J3" toJunction="J4" end="360" vehsPerHour="51.79630477624659"/>
  <flow id="JF87421" begin="300" fromJunction="J3" toJunction="J5" end="360" vehsPerHour="26.630282138181897"/>
  <flow id="JF87422" begin="300" fromJunction="J3" toJunction="J6" end="360" vehsPerHour="40.57510886384648"/>
  <flow id="JF87423" begin="300" fromJunction="J3" toJunction="J7" end="360" vehsPerHour="70.69164543539958"/>
  <flow id="JF87424" begin="300" fromJunction="J4" toJunction="J3" end="360" vehsPerHour="14.378498079558325"/>
  <flow id="JF87425" begin="300" fromJunction="J4" toJunction="J5" end="360" vehsPerHour="6.971398557405209"/>
  <flow id="JF87426" begin="300" fromJunction="J4" toJunction="J7" end="360" vehsPerHour="51.538305626524995"/>
  <flow id="JF87427" begin="300" fromJunction="J5" toJunction="J4" end="360" vehsPerHour="42.58170929114753"/>
  <flow id="JF87428" begin="300" fromJunction="J5" toJunction="J6" end="360" vehsPerHour="38.78583764647315"/>
  <flow id="JF87429" begin="300" fromJunction="J5" toJunction="J7" end="360" vehsPerHour="47.37489241179045"/>
  <flow id="JF87430" begin="300" fromJunction="J6" toJunction="J0" end="360" vehsPerHour="57.73216134724151"/>
  <flow id="JF87431" begin="300" fromJunction="J6" toJunction="J4" end="360" vehsPerHour="45.812900852062754"/>
  <flow id="JF87432" begin="300" fromJunction="J6" toJunction="J5" end="360" vehsPerHour="6.10212768941788"/>
  <flow id="JF87433" begin="300" fromJunction="J6" toJunction="J7" end="360" vehsPerHour="20.1299395220102"/>
  <flow id="JF87434" begin="300" fromJunction="J7" toJunction="J0" end="360" vehsPerHour="10.45655390315674"/>
  <flow id="JF87435" begin="300" fromJunction="J7" toJunction="J4" end="360" vehsPerHour="11.215431009495978"/>
  <flow id="JF87436" begin="300" fromJunction="J7" toJunction="J5" end="360" vehsPerHour="64.80416974930877"/>
  <flow id="JF87437" begin="300" fromJunction="J7" toJunction="J6" end="360" vehsPerHour="12.041979228615178"/>
  <flow id="JF87438" begin="360" fromJunction="J0" toJunction="J3" end="420" vehsPerHour="28.64150911006641"/>
  <flow id="JF87439" begin="360" fromJunction="J0" toJunction="J5" end="420" vehsPerHour="28.92880379481741"/>
  <flow id="JF87440" begin="360" fromJunction="J0" toJunction="J6" end="420" vehsPerHour="84.6815199931439"/>
  <flow id="JF87441" begin="360" fromJunction="J3" toJunction="J4" end="420" vehsPerHour="102.56564898045887"/>
  <flow id="JF87442" begin="360" fromJunction="J3" toJunction="J5" end="420" vehsPerHour="73.75093086032429"/>
  <flow id="JF87443" begin="360" fromJunction="J3" toJunction="J6" end="420" vehsPerHour="60.33045464225063"/>
  <flow id="JF87444" begin="360" fromJunction="J4" toJunction="J0" end="420" vehsPerHour="67.36458667284278"/>
  <flow id="JF87445" begin="360" fromJunction="J4" toJunction="J3" end="420" vehsPerHour="50.09532871065207"/>
  <flow id="JF87446" begin="360" fromJunction="J4" toJunction="J6" end="420" vehsPerHour="66.35278129897644"/>
  <flow id="JF87447" begin="360" fromJunction="J5" toJunction="J0" end="420" vehsPerHour="22.983036931913063"/>
  <flow id="JF87448" begin="360" fromJunction="J5" toJunction="J3" end="420" vehsPerHour="29.39289196848051"/>
  <flow id="JF87449" begin="360" fromJunction="J5" toJunction="J4" end="420" vehsPerHour="53.23809288738663"/>
  <flow id="JF87450" begin="360" fromJunction="J5" toJunction="J6" end="420" vehsPerHour="63.05651567432558"/>
  <flow id="JF87451" begin="360" fromJunction="J5" toJunction="J7" end="420" vehsPerHour="4.789232335907596"/>
  <flow id="JF87452" begin="360" fromJunction="J6" toJunction="J0" end="420" vehsPerHour="41.975220995667414"/>
  <flow id="JF87453" begin="360" fromJunction="J6" toJunction="J3" end="420" vehsPerHour="58.09995778724294"/>
  <flow id="JF87454" begin="360" fromJunction="J6" toJunction="J4" end="420" vehsPerHour="13.486076201484304"/>
  <flow id="JF87455" begin="360" fromJunction="J6" toJunction="J5" end="420" vehsPerHour="0.5132454756314999"/>
  <flow id="JF87456" begin="360" fromJunction="J6" toJunction="J7" end="420" vehsPerHour="66.5695236491647"/>
  <flow id="JF87457" begin="360" fromJunction="J7" toJunction="J0" end="420" vehsPerHour="4.236041876527921"/>
  <flow id="JF87458" begin="360" fromJunction="J7" toJunction="J3" end="420" vehsPerHour="40.791576298981965"/>
  <flow id="JF87459" begin="360" fromJunction="J7" toJunction="J5" end="420" vehsPerHour="10.92832867602319"/>
  <flow id="JF87460" begin="360" fromJunction="J7" toJunction="J6" end="420" vehsPerHour="14.974114154071147"/>
  <flow id="JF87461" begin="420" fromJunction="J0" toJunction="J4" end="480" vehsPerHour="102.5668583165914"/>
  <flow id="JF87462" begin="420" fromJunction="J0" toJunction="J7" end="480" vehsPerHour="79.83455896835109"/>
  <flow id="JF87463" begin="420" fromJunction="J3" toJunction="J5" end="480" vehsPerHour="130.26463144500354"/>
  <flow id="JF87464" begin="420" fromJunction="J3" toJunction="J6" end="480" vehsPerHour="128.80474204687198"/>
  <flow id="JF87465" begin="420" fromJunction="J3" toJunction="J7" end="480" vehsPerHour="49.221812408355824"/>
  <flow id="JF87466" begin="420" fromJunction="J4" toJunction="J0" end="480" vehsPerHour="22.23799678748411"/>
  <flow id="JF87467" begin="420" fromJunction="J4" toJunction="J5" end="480" vehsPerHour="32.193413035446696"/>
  <flow id="JF87468" begin="420" fromJunction="J4" toJunction="J6" end="480" vehsPerHour="36.461414227822516"/>
  <flow id="JF87469" begin="420" fromJunction="J5" toJunction="J0" end="480" vehsPerHour="62.65025636394194"/>
  <flow id="JF87470" begin="420" fromJunction="J5" toJunction="J7" end="480" vehsPerHour="35.73665635592887"/>
  <flow id="JF87471" begin="420" fromJunction="J6" toJunction="J0" end="480" vehsPerHour="25.96372025845889"/>
  <flow id="JF87472" begin="420" fromJunction="J6" toJunction="J4" end="480" vehsPerHour="41.182757538841166"/>
  <flow id="JF87473" begin="420" fromJunction="J6" toJunction="J5" end="480" vehsPerHour="26.282594134764174"/>
  <flow id="JF87474" begin="420" fromJunction="J6" toJunction="J7" end="480" vehsPerHour="43.38460731717588"/>
  <flow id="JF87475" begin="420" fromJunction="J7" toJunction="J3" end="480" vehsPerHour="39.97400819135826"/>
  <flow id="JF87476" begin="420" fromJunction="J7" toJunction="J5" end="480" vehsPerHour="28.764955851499217"/>
  <flow id="JF87477" begin="420" fromJunction="J7" toJunction="J6" end="480" vehsPerHour="63.63816431165829"/>
  <flow id="JF87478" begin="480" fromJunction="J0" toJunction="J3" end="540" vehsPerHour="58.5187501317601"/>
  <flow id="JF87479" begin="480" fromJunction="J0" toJunction="J4" end="540" vehsPerHour="29.77144245372725"/>
  <flow id="JF87480" begin="480" fromJunction="J0" toJunction="J6" end="540" vehsPerHour="101.66304854465967"/>
  <flow id="JF87481" begin="480" fromJunction="J0" toJunction="J7" end="540" vehsPerHour="21.749513135893405"/>
  <flow id="JF87482" begin="480" fromJunction="J3" toJunction="J0" end="540" vehsPerHour="114.9279291483751"/>
  <flow id="JF87483" begin="480" fromJunction="J3" toJunction="J6" end="540" vehsPerHour="45.75260108005125"/>
  <flow id="JF87484" begin="480" fromJunction="J3" toJunction="J7" end="540" vehsPerHour="35.91147985420223"/>
  <flow id="JF87485" begin="480" fromJunction="J4" toJunction="J0" end="540" vehsPerHour="26.401916746368475"/>
  <flow id="JF87486" begin="480" fromJunction="J4" toJunction="J6" end="540" vehsPerHour="29.315829615830136"/>
  <flow id="JF87487" begin="480" fromJunction="J4" toJunction="J7" end="540" vehsPerHour="38.81338151473238"/>
  <flow id="JF87488" begin="480" fromJunction="J5" toJunction="J3" end="540" vehsPerHour="37.18570174654565"/>
  <flow id="JF87489" begin="480" fromJunction="J5" toJunction="J4" end="540" vehsPerHour="65.8634137275171"/>
  <flow id="JF87490" begin="480" fromJunction="J5" toJunction="J6" end="540" vehsPerHour="12.882066987485764"/>
  <flow id="JF87491" begin="480" fromJunction="J6" toJunction="J0" end="540" vehsPerHour="42.55014144918125"/>
  <flow id="JF87492" begin="480" fromJunction="J6" toJunction="J3" end="540" vehsPerHour="65.38540277342732"/>
  <flow id="JF87493" begin="480" fromJunction="J6" toJunction="J4" end="540" vehsPerHour="36.64798358079579"/>
  <flow id="JF87494" begin="480" fromJunction="J6" toJunction="J5" end="540" vehsPerHour="33.9105014132278"/>
  <flow id="JF87495" begin="480" fromJunction="J6" toJunction="J7" end="540" vehsPerHour="35.39280118448072"/>
  <flow id="JF87496" begin="480" fromJunction="J7" toJunction="J0" end="540" vehsPerHour="28.829903488262506"/>
  <flow id="JF87497" begin="480" fromJunction="J7" toJunction="J3" end="540" vehsPerHour="43.06275160725428"/>
  <flow id="JF87498" begin="480" fromJunction="J7" toJunction="J4" end="540" vehsPerHour="19.455954853247864"/>
  <flow id="JF87499" begin="480" fromJunction="J7" toJunction="J5" end="540" vehsPerHour="41.89737322376561"/>
  <flow id="JF87500" begin="540" fromJunction="J0" toJunction="J4" end="600" vehsPerHour="113.38713795981255"/>
  <flow id="JF87501" begin="540" fromJunction="J0" toJunction="J5" end="600" vehsPerHour="81.31539866263083"/>
  <flow id="JF87502" begin="540" fromJunction="J0" toJunction="J6" end="600" vehsPerHour="95.16495791230957"/>
  <flow id="JF87503" begin="540" fromJunction="J0" toJunction="J7" end="600" vehsPerHour="4.516304664639612"/>
  <flow id="JF87504" begin="540" fromJunction="J3" toJunction="J0" end="600" vehsPerHour="14.813533526892796"/>
  <flow id="JF87505" begin="540" fromJunction="J3" toJunction="J4" end="600" vehsPerHour="50.34032474250889"/>
  <flow id="JF87506" begin="540" fromJunction="J3" toJunction="J5" end="600" vehsPerHour="19.29979190996621"/>
  <flow id="JF87507" begin="540" fromJunction="J3" toJunction="J6" end="600" vehsPerHour="84.13471714324733"/>
  <flow id="JF87508" begin="540" fromJunction="J4" toJunction="J0" end="600" vehsPerHour="29.075413199966878"/>
  <flow id="JF87509" begin="540" fromJunction="J4" toJunction="J5" end="600" vehsPerHour="67.8430560815424"/>
  <flow id="JF87510" begin="540" fromJunction="J4" toJunction="J6" end="600" vehsPerHour="40.89105011297492"/>
  <flow id="JF87511" begin="540" fromJunction="J4" toJunction="J7" end="600" vehsPerHour="41.30919656607765"/>
  <flow id="JF87512" begin="540" fromJunction="J5" toJunction="J0" end="600" vehsPerHour="62.56173041882381"/>
  <flow id="JF87513" begin="540" fromJunction="J5" toJunction="J3" end="600" vehsPerHour="65.74612777901748"/>
  <flow id="JF87514" begin="540" fromJunction="J5" toJunction="J4" end="600" vehsPerHour="22.79174428686674"/>
  <flow id="JF87515" begin="540" fromJunction="J5" toJunction="J7" end="600" vehsPerHour="37.26916066887998"/>
  <flow id="JF87516" begin="540" fromJunction="J6" toJunction="J0" end="600" vehsPerHour="68.57262457961674"/>
  <flow id="JF87517" begin="540" fromJunction="J6" toJunction="J5" end="600" vehsPerHour="18.6456709705151"/>
  <flow id="JF87518" begin="540" fromJunction="J6" toJunction="J7" end="600" vehsPerHour="53.3235329068383"/>
  <flow id="JF87519" begin="540" fromJunction="J7" toJunction="J0" end="600" vehsPerHour="61.79216285231212"/>
  <flow id="JF87520" begin="540" fromJunction="J7" toJunction="J3" end="600" vehsPerHour="4.621101747182745"/>
  <flow id="JF87521" begin="540" fromJunction="J7" toJunction="J4" end="600" vehsPerHour="57.72032708726507"/>
  <flow id="JF87522" begin="540" fromJunction="J7" toJunction="J6" end="600" vehsPerHour="11.013483282629213"/>
  <flow id="JF87523" begin="600" fromJunction="J0" toJunction="J3" end="660" vehsPerHour="8.39371442886448"/>
  <flow id="JF87524" begin="600" fromJunction="J0" toJunction="J4" end="660" vehsPerHour="114.71154174995891"/>
  <flow id="JF87525" begin="600" fromJunction="J0" toJunction="J5" end="660" vehsPerHour="34.47815923647527"/>
  <flow id="JF87526" begin="600" fromJunction="J0" toJunction="J7" end="660" vehsPerHour="134.13694976192974"/>
  <flow id="JF87527" begin="600" fromJunction="J3" toJunction="J0" end="660" vehsPerHour="69.99756401386874"/>
  <flow id="JF87528" begin="600" fromJunction="J3" toJunction="J5" end="660" vehsPerHour="125.23955440223543"/>
  <flow id="JF87529" begin="600" fromJunction="J3" toJunction="J6" end="660" vehsPerHour="103.72038295656002"/>
  <flow id="JF87530" begin="600" fromJunction="J4" toJunction="J3" end="660" vehsPerHour="8.101001919352873"/>
  <flow id="JF87531" begin="600" fromJunction="J4" toJunction="J5" end="660" vehsPerHour="11.920586813761552"/>
  <flow id="JF87532" begin="600" fromJunction="J4" toJunction="J6" end="660" vehsPerHour="59.739077941288336"/>
  <flow id="JF87533" begin="600" fromJunction="J5" toJunction="J0" end="660" vehsPerHour="13.538801858740092"/>
  <flow id="JF87534" begin="600" fromJunction="J5" toJunction="J3" end="660" vehsPerHour="37.14017747042653"/>
  <flow id="JF87535" begin="600" fromJunction="J5" toJunction="J4" end="660" vehsPerHour="3.6389010061477993"/>
  <flow id="JF87536" begin="600" fromJunction="J5" toJunction="J7" end="660" vehsPerHour="4.784666951438959"/>
  <flow id="JF87537" begin="600" fromJunction="J6" toJunction="J3" end="660" vehsPerHour="45.33970575106928"/>
  <flow id="JF87538" begin="600" fromJunction="J6" toJunction="J7" end="660" vehsPerHour="27.023435179457646"/>
  <flow id="JF87539" begin="600" fromJunction="J7" toJunction="J0" end="660" vehsPerHour="47.41426687858499"/>
  <flow id="JF87540" begin="600" fromJunction="J7" toJunction="J3" end="660" vehsPerHour="43.11658603792945"/>
  <flow id="JF87541" begin="600" fromJunction="J7" toJunction="J4" end="660" vehsPerHour="17.874966057734962"/>
  <flow id="JF87542" begin="600" fromJunction="J7" toJunction="J6" end="660" vehsPerHour="21.95363305596205"/>
  <flow id="JF87543" begin="660" fromJunction="J0" toJunction="J3" end="720" vehsPerHour="69.56213931524705"/>
  <flow id="JF87544" begin="660" fromJunction="J0" toJunction="J4" end="720" vehsPerHour="131.1389860781116"/>
  <flow id="JF87545" begin="660" fromJunction="J0" toJunction="J5" end="720" vehsPerHour="76.61714386403759"/>
  <flow id="JF87546" begin="660" fromJunction="J0" toJunction="J6" end="720" vehsPerHour="116.06503608453335"/>
  <flow id="JF87547" begin="660" fromJunction="J0" toJunction="J7" end="720" vehsPerHour="79.49585751891777"/>
  <flow id="JF87548" begin="660" fromJunction="J3" toJunction="J4" end="720" vehsPerHour="57.25376114201451"/>
  <flow id="JF87549" begin="660" fromJunction="J3" toJunction="J5" end="720" vehsPerHour="103.28930681321651"/>
  <flow id="JF87550" begin="660" fromJunction="J3" toJunction="J6" end="720" vehsPerHour="12.606278352292188"/>
  <flow id="JF87551" begin="660" fromJunction="J3" toJunction="J7" end="720" vehsPerHour="49.12618683957087"/>
  <flow id="JF87552" begin="660" fromJunction="J4" toJunction="J3" end="720" vehsPerHour="18.40404196242153"/>
  <flow id="JF87553" begin="660" fromJunction="J4" toJunction="J5" end="720" vehsPerHour="52.73646439370375"/>
  <flow id="JF87554" begin="660" fromJunction="J4" toJunction="J6" end="720" vehsPerHour="27.4219160368855"/>
  <flow id="JF87555" begin="660" fromJunction="J4" toJunction="J7" end="720" vehsPerHour="53.27156049751634"/>
  <flow id="JF87556" begin="660" fromJunction="J5" toJunction="J0" end="720" vehsPerHour="66.23939090934478"/>
  <flow id="JF87557" begin="660" fromJunction="J5" toJunction="J3" end="720" vehsPerHour="34.32645181467531"/>
  <flow id="JF87558" begin="660" fromJunction="J5" toJunction="J4" end="720" vehsPerHour="49.41506143230201"/>
  <flow id="JF87559" begin="660" fromJunction="J5" toJunction="J6" end="720" vehsPerHour="43.59400140516136"/>
  <flow id="JF87560" begin="660" fromJunction="J5" toJunction="J7" end="720" vehsPerHour="27.71626562603856"/>
  <flow id="JF87561" begin="660" fromJunction="J6" toJunction="J3" end="720" vehsPerHour="2.8714804593761274"/>
  <flow id="JF87562" begin="660" fromJunction="J6" toJunction="J4" end="720" vehsPerHour="46.396935167501184"/>
  <flow id="JF87563" begin="660" fromJunction="J6" toJunction="J5" end="720" vehsPerHour="13.2735538733623"/>
  <flow id="JF87564" begin="660" fromJunction="J6" toJunction="J7" end="720" vehsPerHour="46.4978961407621"/>
  <flow id="JF87565" begin="660" fromJunction="J7" toJunction="J0" end="720" vehsPerHour="38.76210438431853"/>
  <flow id="JF87566" begin="660" fromJunction="J7" toJunction="J3" end="720" vehsPerHour="60.8639386175169"/>
  <flow id="JF87567" begin="660" fromJunction="J7" toJunction="J5" end="720" vehsPerHour="23.702461472508247"/>
  <flow id="JF87568" begin="660" fromJunction="J7" toJunction="J6" end="720" vehsPerHour="6.045415879565431"/>
  <flow id="JF87569" begin="720" fromJunction="J0" toJunction="J3" end="780" vehsPerHour="46.574340159141464"/>
  <flow id="JF87570" begin="720" fromJunction="J0" toJunction="J4" end="780" vehsPerHour="108.28560791792202"/>
  <flow id="JF87571" begin="720" fromJunction="J0" toJunction="J6" end="780" vehsPerHour="70.54495902648912"/>
  <flow id="JF87572" begin="720" fromJunction="J0" toJunction="J7" end="780" vehsPerHour="115.12076694358463"/>
  <flow id="JF87573" begin="720" fromJunction="J3" toJunction="J0" end="780" vehsPerHour="31.557584546063016"/>
  <flow id="JF87574" begin="720" fromJunction="J3" toJunction="J4" end="780" vehsPerHour="88.58748060144185"/>
  <flow id="JF87575" begin="720" fromJunction="J3" toJunction="J5" end="780" vehsPerHour="13.163305214846979"/>
  <flow id="JF87576" begin="720" fromJunction="J3" toJunction="J7" end="780" vehsPerHour="97.75636010580615"/>
  <flow id="JF87577" begin="720" fromJunction="J4" toJunction="J3" end="780" vehsPerHour="58.99499932096995"/>
  <flow id="JF87578" begin="720" fromJunction="J4" toJunction="J5" end="780" vehsPerHour="14.982641822780465"/>
  <flow id="JF87579" begin="720" fromJunction="J4" toJunction="J6" end="780" vehsPerHour="3.9844191197299668"/>
  <flow id="JF87580" begin="720" fromJunction="J4" toJunction="J7" end="780" vehsPerHour="47.489307763334466"/>
  <flow id="JF87581" begin="720" fromJunction="J5" toJunction="J0" end="780" vehsPerHour="49.129243867782826"/>
  <flow id="JF87582" begin="720" fromJunction="J5" toJunction="J4" end="780" vehsPerHour="67.08926641325348"/>
  <flow id="JF87583" begin="720" fromJunction="J5" toJunction="J6" end="780" vehsPerHour="0.5594245604448336"/>
  <flow id="JF87584" begin="720" fromJunction="J5" toJunction="J7" end="780" vehsPerHour="22.065943013228868"/>
  <flow id="JF87585" begin="720" fromJunction="J6" toJunction="J4" end="780" vehsPerHour="11.716140272699423"/>