<?xml version="1.0" encoding="UTF-8"?>
<routes xmlns:xsi="http://www.w3.org/2001/XMLSchema-instance" xsi:noNamespaceSchemaLocation="http://sumo.dlr.de/xsd/routes_file.xsd">
  <flow id="JF74954" begin="0" fromJunction="J0" toJunction="J3" end="60" vehsPerHour="24.113467931677526"/>
  <flow id="JF74955" begin="0" fromJunction="J0" toJunction="J5" end="60" vehsPerHour="65.45802392131174"/>
  <flow id="JF74956" begin="0" fromJunction="J0" toJunction="J6" end="60" vehsPerHour="31.434883943121896"/>
  <flow id="JF74957" begin="0" fromJunction="J3" toJunction="J0" end="60" vehsPerHour="59.73194162785708"/>
  <flow id="JF74958" begin="0" fromJunction="J3" toJunction="J6" end="60" vehsPerHour="74.6388768093352"/>
  <flow id="JF74959" begin="0" fromJunction="J3" toJunction="J7" end="60" vehsPerHour="26.65579273488392"/>
  <flow id="JF74960" begin="0" fromJunction="J4" toJunction="J0" end="60" vehsPerHour="67.41696196397425"/>
  <flow id="JF74961" begin="0" fromJunction="J4" toJunction="J5" end="60" vehsPerHour="42.03610550599666"/>
  <flow id="JF74962" begin="0" fromJunction="J4" toJunction="J6" end="60" vehsPerHour="11.865311934484712"/>
  <flow id="JF74963" begin="0" fromJunction="J5" toJunction="J0" end="60" vehsPerHour="20.278543119590857"/>
  <flow id="JF74964" begin="0" fromJunction="J5" toJunction="J3" end="60" vehsPerHour="17.288612968673227"/>
  <flow id="JF74965" begin="0" fromJunction="J5" toJunction="J6" end="60" vehsPerHour="64.71359784302776"/>
  <flow id="JF74966" begin="0" fromJunction="J5" toJunction="J7" end="60" vehsPerHour="9.506565010802847"/>
  <flow id="JF74967" begin="0" fromJunction="J6" toJunction="J0" end="60" vehsPerHour="59.685962785154274"/>
  <flow id="JF74968" begin="0" fromJunction="J6" toJunction="J3" end="60" vehsPerHour="65.71133640551129"/>
  <flow id="JF74969" begin="0" fromJunction="J6" toJunction="J4" end="60" vehsPerHour="45.45586445836862"/>
  <flow id="JF74970" begin="0" fromJunction="J6" toJunction="J7" end="60" vehsPerHour="44.13788811582246"/>
  <flow id="JF74971" begin="0" fromJunction="J7" toJunction="J4" end="60" vehsPerHour="13.699645939370017"/>
  <flow id="JF74972" begin="0" fromJunction="J7" toJunction="J5" end="60" vehsPerHour="41.66596336914655"/>
  <flow id="JF74973" begin="0" fromJunction="J7" toJunction="J6" end="60" vehsPerHour="20.552085228482426"/>
  <flow id="JF74974" begin="60" fromJunction="J0" toJunction="J4" end="120" vehsPerHour="50.98807417256378"/>
  <flow id="JF74975" begin="60" fromJunction="J0" toJunction="J6" end="120" vehsPerHour="132.65664085262048"/>
  <flow id="JF74976" begin="60" fromJunction="J3" toJunction="J0" end="120" vehsPerHour="36.38811913479332"/>
  <flow id="JF74977" begin="60" fromJunction="J4" toJunction="J0" end="120" vehsPerHour="40.86684187522807"/>
  <flow id="JF74978" begin="60" fromJunction="J4" toJunction="J3" end="120" vehsPerHour="17.209677537986014"/>
  <flow id="JF74979" begin="60" fromJunction="J4" toJunction="J5" end="120" vehsPerHour="9.481915169964726"/>
  <flow id="JF74980" begin="60" fromJunction="J4" toJunction="J7" end="120" vehsPerHour="52.57417229189039"/>
  <flow id="JF74981" begin="60" fromJunction="J5" toJunction="J0" end="120" vehsPerHour="48.91243103297596"/>
  <flow id="JF74982" begin="60" fromJunction="J5" toJunction="J3" end="120" vehsPerHour="57.878030582349815"/>
  <flow id="JF74983" begin="60" fromJunction="J5" toJunction="J4" end="120" vehsPerHour="60.28479590883195"/>
  <flow id="JF74984" begin="60" fromJunction="J5" toJunction="J6" end="120" vehsPerHour="16.22672924723231"/>
  <flow id="JF74985" begin="60" fromJunction="J5" toJunction="J7" end="120" vehsPerHour="56.063034138623586"/>
  <flow id="JF74986" begin="60" fromJunction="J6" toJunction="J7" end="120" vehsPerHour="7.505789220575641"/>
  <flow id="JF74987" begin="60" fromJunction="J7" toJunction="J0" end="120" vehsPerHour="59.095625491488455"/>
  <flow id="JF74988" begin="60" fromJunction="J7" toJunction="J5" end="120" vehsPerHour="48.08470183960744"/>
  <flow id="JF74989" begin="120" fromJunction="J0" toJunction="J3" end="180" vehsPerHour="63.53198956979043"/>
  <flow id="JF74990" begin="120" fromJunction="J0" toJunction="J4" end="180" vehsPerHour="127.33949981264747"/>
  <flow id="JF74991" begin="120" fromJunction="J0" toJunction="J6" end="180" vehsPerHour="0.5325371294377154"/>
  <flow id="JF74992" begin="120" fromJunction="J3" toJunction="J0" end="180" vehsPerHour="119.84833627416798"/>
  <flow id="JF74993" begin="120" fromJunction="J3" toJunction="J4" end="180" vehsPerHour="109.6258293731942"/>
  <flow id="JF74994" begin="120" fromJunction="J3" toJunction="J5" end="180" vehsPerHour="80.2776771749513"/>
  <flow id="JF74995" begin="120" fromJunction="J3" toJunction="J6" end="180" vehsPerHour="137.26937484431213"/>
  <flow id="JF74996" begin="120" fromJunction="J4" toJunction="J0" end="180" vehsPerHour="13.479589127185777"/>
  <flow id="JF74997" begin="120" fromJunction="J4" toJunction="J5" end="180" vehsPerHour="44.87809908889417"/>
  <flow id="JF74998" begin="120" fromJunction="J4" toJunction="J6" end="180" vehsPerHour="28.573997213515607"/>
  <flow id="JF74999" begin="120" fromJunction="J5" toJunction="J3" end="180" vehsPerHour="39.43743620303506"/>
  <flow id="JF75000" begin="120" fromJunction="J5" toJunction="J7" end="180" vehsPerHour="19.715557073595523"/>
  <flow id="JF75001" begin="120" fromJunction="J6" toJunction="J3" end="180" vehsPerHour="45.66839641159173"/>
  <flow id="JF75002" begin="120" fromJunction="J6" toJunction="J4" end="180" vehsPerHour="59.15956463492218"/>
  <flow id="JF75003" begin="120" fromJunction="J6" toJunction="J5" end="180" vehsPerHour="13.862785130648815"/>
  <flow id="JF75004" begin="120" fromJunction="J6" toJunction="J7" end="180" vehsPerHour="11.335781829713113"/>
  <flow id="JF75005" begin="120" fromJunction="J7" toJunction="J0" end="180" vehsPerHour="49.46731418523444"/>
  <flow id="JF75006" begin="120" fromJunction="J7" toJunction="J4" end="180" vehsPerHour="22.342997268679095"/>
  <flow id="JF75007" begin="120" fromJunction="J7" toJunction="J5" end="180" vehsPerHour="67.03864338429985"/>
  <flow id="JF75008" begin="120" fromJunction="J7" toJunction="J6" end="180" vehsPerHour="42.16373259601135"/>
  <flow id="JF75009" begin="180" fromJunction="J0" toJunction="J4" end="240" vehsPerHour="30.075272047410348"/>
  <flow id="JF75010" begin="180" fromJunction="J0" toJunction="J6" end="240" vehsPerHour="89.07187818093365"/>
  <flow id="JF75011" begin="180" fromJunction="J3" toJunction="J0" end="240" vehsPerHour="59.180576225712066"/>
  <flow id="JF75012" begin="180" fromJunction="J3" toJunction="J4" end="240" vehsPerHour="123.78720734857254"/>
  <flow id="JF75013" begin="180" fromJunction="J3" toJunction="J5" end="240" vehsPerHour="104.22380493111743"/>
  <flow id="JF75014" begin="180" fromJunction="J3" toJunction="J7" end="240" vehsPerHour="81.54515837815694"/>
  <flow id="JF75015" begin="180" fromJunction="J4" toJunction="J3" end="240" vehsPerHour="57.677753629624426"/>
  <flow id="JF75016" begin="180" fromJunction="J4" toJunction="J5" end="240" vehsPerHour="16.96015391169015"/>
  <flow id="JF75017" begin="180" fromJunction="J4" toJunction="J6" end="240" vehsPerHour="62.57182398384181"/>
  <flow id="JF75018" begin="180" fromJunction="J4" toJunction="J7" end="240" vehsPerHour="16.856869968981687"/>
  <flow id="JF75019" begin="180" fromJunction="J5" toJunction="J0" end="240" vehsPerHour="39.350014642505535"/>
  <flow id="JF75020" begin="180" fromJunction="J5" toJunction="J4" end="240" vehsPerHour="47.51163522719841"/>
  <flow id="JF75021" begin="180" fromJunction="J5" toJunction="J6" end="240" vehsPerHour="5.511026389278012"/>
  <flow id="JF75022" begin="180" fromJunction="J5" toJunction="J7" end="240" vehsPerHour="6.851233457271779"/>
  <flow id="JF75023" begin="180" fromJunction="J6" toJunction="J3" end="240" vehsPerHour="38.73261980658265"/>
  <flow id="JF75024" begin="180" fromJunction="J6" toJunction="J4" end="240" vehsPerHour="42.31365293873808"/>
  <flow id="JF75025" begin="180" fromJunction="J6" toJunction="J5" end="240" vehsPerHour="30.010770938115307"/>
  <flow id="JF75026" begin="180" fromJunction="J7" toJunction="J0" end="240" vehsPerHour="12.46687075432554"/>
  <flow id="JF75027" begin="180" fromJunction="J7" toJunction="J3" end="240" vehsPerHour="5.714475199799056"/>
  <flow id="JF75028" begin="180" fromJunction="J7" toJunction="J4" end="240" vehsPerHour="28.92075440153441"/>
  <flow id="JF75029" begin="240" fromJunction="J0" toJunction="J3" end="300" vehsPerHour="70.84024392721695"/>
  <flow id="JF75030" begin="240" fromJunction="J0" toJunction="J5" end="300" vehsPerHour="116.0483094607815"/>
  <flow id="JF75031" begin="240" fromJunction="J0" toJunction="J6" end="300" vehsPerHour="18.445687706320697"/>
  <flow id="JF75032" begin="240" fromJunction="J0" toJunction="J7" end="300" vehsPerHour="61.95228626834446"/>
  <flow id="JF75033" begin="240" fromJunction="J3" toJunction="J0" end="300" vehsPerHour="39.19325573466401"/>
  <flow id="JF75034" begin="240" fromJunction="J3" toJunction="J4" end="300" vehsPerHour="118.84181902642092"/>
  <flow id="JF75035" begin="240" fromJunction="J3" toJunction="J6" end="300" vehsPerHour="131.4805420071762"/>
  <flow id="JF75036" begin="240" fromJunction="J4" toJunction="J0" end="300" vehsPerHour="20.36297004319681"/>
  <flow id="JF75037" begin="240" fromJunction="J4" toJunction="J3" end="300" vehsPerHour="13.953108583991002"/>
  <flow id="JF75038" begin="240" fromJunction="J4" toJunction="J5" end="300" vehsPerHour="50.898819084080124"/>
  <flow id="JF75039" begin="240" fromJunction="J4" toJunction="J6" end="300" vehsPerHour="9.767149092875815"/>
  <flow id="JF75040" begin="240" fromJunction="J4" toJunction="J7" end="300" vehsPerHour="55.112224929785015"/>
  <flow id="JF75041" begin="240" fromJunction="J5" toJunction="J4" end="300" vehsPerHour="49.111922141913766"/>
  <flow id="JF75042" begin="240" fromJunction="J5" toJunction="J6" end="300" vehsPerHour="13.361515539767176"/>
  <flow id="JF75043" begin="240" fromJunction="J5" toJunction="J7" end="300" vehsPerHour="43.45256912476109"/>
  <flow id="JF75044" begin="240" fromJunction="J6" toJunction="J0" end="300" vehsPerHour="2.7907505691746164"/>
  <flow id="JF75045" begin="240" fromJunction="J6" toJunction="J3" end="300" vehsPerHour="53.02986465451189"/>
  <flow id="JF75046" begin="240" fromJunction="J6" toJunction="J5" end="300" vehsPerHour="53.51822951127936"/>
  <flow id="JF75047" begin="240" fromJunction="J6" toJunction="J7" end="300" vehsPerHour="30.136844420913704"/>
  <flow id="JF75048" begin="240" fromJunction="J7" toJunction="J0" end="300" vehsPerHour="3.165208030827407"/>
  <flow id="JF75049" begin="240" fromJunction="J7" toJunction="J3" end="300" vehsPerHour="26.27954335601605"/>
  <flow id="JF75050" begin="240" fromJunction="J7" toJunction="J5" end="300" vehsPerHour="18.384337595890514"/>
  <flow id="JF75051" begin="300" fromJunction="J0" toJunction="J3" end="360" vehsPerHour="102.4576337675463"/>
  <flow id="JF75052" begin="300" fromJunction="J0" toJunction="J6" end="360" vehsPerHour="134.2782210738534"/>
  <flow id="JF75053" begin="300" fromJunction="J0" toJunction="J7" end="360" vehsPerHour="50.07698675692148"/>
  <flow id="JF75054" begin="300" fromJunction="J3" toJunction="J0" end="360" vehsPerHour="79.57216051183427"/>
  <flow id="JF75055" begin="300" fromJunction="J3" toJunction="J4" end="360" vehsPerHour="86.11616191434443"/>
  <flow id="JF75056" begin="300" fromJunction="J3" toJunction="J5" end="360" vehsPerHour="94.38618618547383"/>
  <flow id="JF75057" begin="300" fromJunction="J3" toJunction="J6" end="360" vehsPerHour="128.0367687646945"/>
  <flow id="JF75058" begin="300" fromJunction="J3" toJunction="J7" end="360" vehsPerHour="106.32780845165999"/>
  <flow id="JF75059" begin="300" fromJunction="J4" toJunction="J0" end="360" vehsPerHour="52.933566338277494"/>
  <flow id="JF75060" begin="300" fromJunction="J5" toJunction="J0" end="360" vehsPerHour="29.514508562416523"/>
  <flow id="JF75061" begin="300" fromJunction="J5" toJunction="J3" end="360" vehsPerHour="2.1315494656184457"/>
  <flow id="JF75062" begin="300" fromJunction="J5" toJunction="J4" end="360" vehsPerHour="23.747500759020117"/>
  <flow id="JF75063" begin="300" fromJunction="J5" toJunction="J6" end="360" vehsPerHour="65.71686540273971"/>
  <flow id="JF75064" begin="300" fromJunction="J5" toJunction="J7" end="360" vehsPerHour="11.554407563102307"/>
  <flow id="JF75065" begin="300" fromJunction="J6" toJunction="J0" end="360" vehsPerHour="13.687779653373886"/>
  <flow id="JF75066" begin="300" fromJunction="J6" toJunction="J3" end="360" vehsPerHour="50.58680866843136"/>
  <flow id="JF75067" begin="300" fromJunction="J6" toJunction="J5" end="360" vehsPerHour="5.063075053625563"/>
  <flow id="JF75068" begin="300" fromJunction="J6" toJunction="J7" end="360" vehsPerHour="63.897244974456996"/>
  <flow id="JF75069" begin="300" fromJunction="J7" toJunction="J3" end="360" vehsPerHour="61.546680646564134"/>
  <flow id="JF75070" begin="300" fromJunction="J7" toJunction="J4" end="360" vehsPerHour="46.342527888104975"/>
  <flow id="JF75071" begin="300" fromJunction="J7" toJunction="J6" end="360" vehsPerHour="21.575497015002092"/>
  <flow id="JF75072" begin="360" fromJunction="J0" toJunction="J3" end="420" vehsPerHour="91.7501371590652"/>
  <flow id="JF75073" begin="360" fromJunction="J0" toJunction="J4" end="420" vehsPerHour="101.33831728052989"/>
  <flow id="JF75074" begin="360" fromJunction="J0" toJunction="J5" end="420" vehsPerHour="107.97145055487829"/>
  <flow id="JF75075" begin="360" fromJunction="J3" toJunction="J4" end="420" vehsPerHour="61.36597537104652"/>
  <flow id="JF75076" begin="360" fromJunction="J3" toJunction="J5" end="420" vehsPerHour="64.15862113877482"/>
  <flow id="JF75077" begin="360" fromJunction="J3" toJunction="J6" end="420" vehsPerHour="32.114201720521"/>
  <flow id="JF75078" begin="360" fromJunction="J3" toJunction="J7" end="420" vehsPerHour="25.158805241913928"/>
  <flow id="JF75079" begin="360" fromJunction="J4" toJunction="J0" end="420" vehsPerHour="40.03858588373483"/>
  <flow id="JF75080" begin="360" fromJunction="J4" toJunction="J5" end="420" vehsPerHour="13.498324705586517"/>
  <flow id="JF75081" begin="360" fromJunction="J4" toJunction="J7" end="420" vehsPerHour="19.30764963317203"/>
  <flow id="JF75082" begin="360" fromJunction="J5" toJunction="J0" end="420" vehsPerHour="35.00452152739177"/>
  <flow id="JF75083" begin="360" fromJunction="J5" toJunction="J3" end="420" vehsPerHour="4.372482391801793"/>
  <flow id="JF75084" begin="360" fromJunction="J5" toJunction="J4" end="420" vehsPerHour="63.481855706669165"/>
  <flow id="JF75085" begin="360" fromJunction="J5" toJunction="J6" end="420" vehsPerHour="40.84570440802332"/>
  <flow id="JF75086" begin="360" fromJunction="J5" toJunction="J7" end="420" vehsPerHour="0.7980923439002684"/>
  <flow id="JF75087" begin="360" fromJunction="J6" toJunction="J3" end="420" vehsPerHour="32.25303708626899"/>
  <flow id="JF75088" begin="360" fromJunction="J6" toJunction="J4" end="420" vehsPerHour="19.960460047780444"/>
  <flow id="JF75089" begin="360" fromJunction="J6" toJunction="J7" end="420" vehsPerHour="18.96016341676353"/>
  <flow id="JF75090" begin="360" fromJunction="J7" toJunction="J0" end="420" vehsPerHour="4.977017641197228"/>
  <flow id="JF75091" begin="360" fromJunction="J7" toJunction="J5" end="420" vehsPerHour="3.451520298499709"/>
  <flow id="JF75092" begin="420" fromJunction="J0" toJunction="J3" end="480" vehsPerHour="5.20173625828928"/>
  <flow id="JF75093" begin="420" fromJunction="J0" toJunction="J5" end="480" vehsPerHour="15.378068339618357"/>
  <flow id="JF75094" begin="420" fromJunction="J0" toJunction="J6" end="480" vehsPerHour="26.200422771587697"/>
  <flow id="JF75095" begin="420" fromJunction="J3" toJunction="J5" end="480" vehsPerHour="134.1482393300981"/>
  <flow id="JF75096" begin="420" fromJunction="J4" toJunction="J0" end="480" vehsPerHour="27.61678403684061"/>
  <flow id="JF75097" begin="420" fromJunction="J4" toJunction="J3" end="480" vehsPerHour="15.728848846479424"/>
  <flow id="JF75098" begin="420" fromJunction="J4" toJunction="J6" end="480" vehsPerHour="34.49679023366304"/>
  <flow id="JF75099" begin="420" fromJunction="J4" toJunction="J7" end="480" vehsPerHour="22.212663237854592"/>
  <flow id="JF75100" begin="420" fromJunction="J5" toJunction="J0" end="480" vehsPerHour="42.654191098673955"/>
  <flow id="JF75101" begin="420" fromJunction="J5" toJunction="J3" end="480" vehsPerHour="35.90155295579034"/>
  <flow id="JF75102" begin="420" fromJunction="J5" toJunction="J4" end="480" vehsPerHour="18.608787248208245"/>
  <flow id="JF75103" begin="420" fromJunction="J5" toJunction="J6" end="480" vehsPerHour="66.48032792126538"/>
  <flow id="JF75104" begin="420" fromJunction="J5" toJunction="J7" end="480" vehsPerHour="31.00086107016309"/>
  <flow id="JF75105" begin="420" fromJunction="J6" toJunction="J3" end="480" vehsPerHour="41.855627219665365"/>
  <flow id="JF75106" begin="420" fromJunction="J6" toJunction="J4" end="480" vehsPerHour="52.234577025031676"/>
  <flow id="JF75107" begin="420" fromJunction="J6" toJunction="J5" end="480" vehsPerHour="58.553984840864885"/>
  <flow id="JF75108" begin="420" fromJunction="J6" toJunction="J7" end="480" vehsPerHour="49.54180882738595"/>
  <flow id="JF75109" begin="420" fromJunction="J7" toJunction="J0" end="480" vehsPerHour="19.564087621152378"/>
  <flow id="JF75110" begin="420" fromJunction="J7" toJunction="J3" end="480" vehsPerHour="22.429019893406025"/>
  <flow id="JF75111" begin="420" fromJunction="J7" toJunction="J4" end="480" vehsPerHour="20.150786625203207"/>
  <flow id="JF75112" begin="480" fromJunction="J0" toJunction="J4" end="540" vehsPerHour="73.00081622158498"/>
  <flow id="JF75113" begin="480" fromJunction="J0" toJunction="J5" end="540" vehsPerHour="17.80862512305725"/>
  <flow id="JF75114" begin="480" fromJunction="J3" toJunction="J0" end="540" vehsPerHour="31.59811528890928"/>
  <flow id="JF75115" begin="480" fromJunction="J3" toJunction="J4" end="540" vehsPerHour="44.42768091682748"/>
  <flow id="JF75116" begin="480" fromJunction="J3" toJunction="J5" end="540" vehsPerHour="129.0547353308509"/>
  <flow id="JF75117" begin="480" fromJunction="J3" toJunction="J6" end="540" vehsPerHour="59.856966517059"/>
  <flow id="JF75118" begin="480" fromJunction="J3" toJunction="J7" end="540" vehsPerHour="92.96889976782714"/>
  <flow id="JF75119" begin="480" fromJunction="J4" toJunction="J0" end="540" vehsPerHour="30.075445352845406"/>
  <flow id="JF75120" begin="480" fromJunction="J4" toJunction="J6" end="540" vehsPerHour="46.81896530314392"/>
  <flow id="JF75121" begin="480" fromJunction="J4" toJunction="J7" end="540" vehsPerHour="49.7312138393449"/>
  <flow id="JF75122" begin="480" fromJunction="J5" toJunction="J3" end="540" vehsPerHour="35.01402490999751"/>
  <flow id="JF75123" begin="480" fromJunction="J5" toJunction="J4" end="540" vehsPerHour="23.637140988841683"/>
  <flow id="JF75124" begin="480" fromJunction="J5" toJunction="J6" end="540" vehsPerHour="63.01341694474475"/>
  <flow id="JF75125" begin="480" fromJunction="J5" toJunction="J7" end="540" vehsPerHour="38.05080862309245"/>
  <flow id="JF75126" begin="480" fromJunction="J6" toJunction="J0" end="540" vehsPerHour="9.039910421065217"/>
  <flow id="JF75127" begin="480" fromJunction="J6" toJunction="J4" end="540" vehsPerHour="56.781537372337084"/>
  <flow id="JF75128" begin="480" fromJunction="J6" toJunction="J5" end="540" vehsPerHour="36.634578010207164"/>
  <flow id="JF75129" begin="480" fromJunction="J7" toJunction="J4" end="540" vehsPerHour="49.20466596839948"/>
  <flow id="JF75130" begin="480" fromJunction="J7" toJunction="J5" end="540" vehsPerHour="46.38089404666783"/>
  <flow id="JF75131" begin="480" fromJunction="J7" toJunction="J6" end="540" vehsPerHour="26.536130203218445"/>
  <flow id="JF75132" begin="540" fromJunction="J0" toJunction="J3" end="600" vehsPerHour="50.97835672178679"/>
  <flow id="JF75133" begin="540" fromJunction="J0" toJunction="J4" end="600" vehsPerHour="65.04596879650381"/>
  <flow id="JF75134" begin="540" fromJunction="J0" toJunction="J5" end="600" vehsPerHour="115.76338830198542"/>
  <flow id="JF75135" begin="540" fromJunction="J0" toJunction="J6" end="600" vehsPerHour="11.65700890409859"/>
  <flow id="JF75136" begin="540" fromJunction="J3" toJunction="J0" end="600" vehsPerHour="19.732390697258595"/>
  <flow id="JF75137" begin="540" fromJunction="J3" toJunction="J6" end="600" vehsPerHour="110.61833594203918"/>
  <flow id="JF75138" begin="540" fromJunction="J3" toJunction="J7" end="600" vehsPerHour="103.0772596883957"/>
  <flow id="JF75139" begin="540" fromJunction="J4" toJunction="J0" end="600" vehsPerHour="59.31023756800749"/>
  <flow id="JF75140" begin="540" fromJunction="J4" toJunction="J3" end="600" vehsPerHour="30.200719962032345"/>
  <flow id="JF75141" begin="540" fromJunction="J4" toJunction="J5" end="600" vehsPerHour="25.05749045579429"/>
  <flow id="JF75142" begin="540" fromJunction="J4" toJunction="J6" end="600" vehsPerHour="33.58075964779513"/>
  <flow id="JF75143" begin="540" fromJunction="J4" toJunction="J7" end="600" vehsPerHour="65.6305232922806"/>
  <flow id="JF75144" begin="540" fromJunction="J5" toJunction="J3" end="600" vehsPerHour="65.0267985900168"/>
  <flow id="JF75145" begin="540" fromJunction="J5" toJunction="J7" end="600" vehsPerHour="62.81228233016868"/>
  <flow id="JF75146" begin="540" fromJunction="J6" toJunction="J0" end="600" vehsPerHour="18.18592462285416"/>
  <flow id="JF75147" begin="540" fromJunction="J6" toJunction="J3" end="600" vehsPerHour="52.206238024744984"/>
  <flow id="JF75148" begin="540" fromJunction="J6" toJunction="J4" end="600" vehsPerHour="19.310282390851583"/>
  <flow id="JF75149" begin="540" fromJunction="J6" toJunction="J5" end="600" vehsPerHour="18.423203250329916"/>
  <flow id="JF75150" begin="540" fromJunction="J6" toJunction="J7" end="600" vehsPerHour="27.165795750789957"/>
  <flow id="JF75151" begin="540" fromJunction="J7" toJunction="J0" end="600" vehsPerHour="25.44545417334178"/>
  <flow id="JF75152" begin="540" fromJunction="J7" toJunction="J3" end="600" vehsPerHour="41.75946794323486"/>
  <flow id="JF75153" begin="540" fromJunction="J7" toJunction="J4" end="600" vehsPerHour="28.70415157486082"/>
  <flow id="JF75154" begin="540" fromJunction="J7" toJunction="J5" end="600" vehsPerHour="33.56476531370639"/>
  <flow id="JF75155" begin="600" fromJunction="J0" toJunction="J3" end="660" vehsPerHour="125.74255312048867"/>
  <flow id="JF75156" begin="600" fromJunction="J0" toJunction="J6" end="660" vehsPerHour="41.90634423558079"/>
  <flow id="JF75157" begin="600" fromJunction="J0" toJunction="J7" end="660" vehsPerHour="134.65931162715054"/>
  <flow id="JF75158" begin="600" fromJunction="J3" toJunction="J0" end="660" vehsPerHour="122.76971088972066"/>
  <flow id="JF75159" begin="600" fromJunction="J3" toJunction="J4" end="660" vehsPerHour="93.2006795394638"/>
  <flow id="JF75160" begin="600" fromJunction="J3" toJunction="J5" end="660" vehsPerHour="130.20965111901182"/>
  <flow id="JF75161" begin="600" fromJunction="J3" toJunction="J6" end="660" vehsPerHour="85.66279290947685"/>
  <flow id="JF75162" begin="600" fromJunction="J3" toJunction="J7" end="660" vehsPerHour="106.33005171064426"/>
  <flow id="JF75163" begin="600" fromJunction="J4" toJunction="J0" end="660" vehsPerHour="19.593763916275243"/>
  <flow id="JF75164" begin="600" fromJunction="J4" toJunction="J3" end="660" vehsPerHour="27.427694374416415"/>
  <flow id="JF75165" begin="600" fromJunction="J4" toJunction="J6" end="660" vehsPerHour="30.203151368576673"/>
  <flow id="JF75166" begin="600" fromJunction="J4" toJunction="J7" end="660" vehsPerHour="24.114617769071252"/>
  <flow id="JF75167" begin="600" fromJunction="J5" toJunction="J3" end="660" vehsPerHour="18.03960610153954"/>
  <flow id="JF75168" begin="600" fromJunction="J5" toJunction="J6" end="660" vehsPerHour="50.32632134231012"/>
  <flow id="JF75169" begin="600" fromJunction="J5" toJunction="J7" end="660" vehsPerHour="17.22416404410215"/>
  <flow id="JF75170" begin="600" fromJunction="J6" toJunction="J4" end="660" vehsPerHour="22.579284898630284"/>
  <flow id="JF75171" begin="600" fromJunction="J7" toJunction="J3" end="660" vehsPerHour="21.80213218697374"/>
  <flow id="JF75172" begin="600" fromJunction="J7" toJunction="J4" end="660" vehsPerHour="8.629125882698407"/>
  <flow id="JF75173" begin="600" fromJunction="J7" toJunction="J5" end="660" vehsPerHour="20.03410976979691"/>
  <flow id="JF75174" begin="600" fromJunction="J7" toJunction="J6" end="660" vehsPerHour="44.29686448909578"/>
  <flow id="JF75175" begin="660" fromJunction="J0" toJunction="J3" end="720" vehsPerHour="108.73818309593796"/>
  <flow id="JF75176" begin="660" fromJunction="J0" toJunction="J5" end="720" vehsPerHour="40.46404074244803"/>
  <flow id="JF75177" begin="660" fromJunction="J0" toJunction="J7" end="720" vehsPerHour="27.244979407666204"/>
  <flow id="JF75178" begin="660" fromJunction="J3" toJunction="J4" end="720" vehsPerHour="92.29107660361662"/>
  <flow id="JF75179" begin="660" fromJunction="J3" toJunction="J5" end="720" vehsPerHour="130.2085770312004"/>
  <flow id="JF75180" begin="660" fromJunction="J3" toJunction="J6" end="720" vehsPerHour="94.93891590299663"/>
  <flow id="JF75181" begin="660" fromJunction="J3" toJunction="J7" end="720" vehsPerHour="84.81878776163254"/>
  <flow id="JF75182" begin="660" fromJunction="J4" toJunction="J0" end="720" vehsPerHour="66.13583457030973"/>
  <flow id="JF75183" begin="660" fromJunction="J4" toJunction="J5" end="720" vehsPerHour="14.188093100041913"/>
  <flow id="JF75184" begin="660" fromJunction="J4" toJunction="J7" end="720" vehsPerHour="31.591958952820406"/>
  <flow id="JF75185" begin="660" fromJunction="J5" toJunction="J0" end="720" vehsPerHour="9.028425983896758"/>
  <flow id="JF75186" begin="660" fromJunction="J5" toJunction="J3" end="720" vehsPerHour="22.324781348747543"/>
  <flow id="JF75187" begin="660" fromJunction="J5" toJunction="J4" end="720" vehsPerHour="40.909764791377384"/>
  <flow id="JF75188" begin="660" fromJunction="J5" toJunction="J6" end="720" vehsPerHour="37.89273618733985"/>
  <flow id="JF75189" begin="660" fromJunction="J5" toJunction="J7" end="720" vehsPerHour="19.3035642155625"/>
  <flow id="JF75190" begin="660" fromJunction="J6" toJunction="J3" end="720" vehsPerHour="16.0793869526012"/>
  <flow id="JF75191" begin="660" fromJunction="J6" toJunction="J4" end="720" vehsPerHour="55.14578494775362"/>
  <flow id="JF75192" begin="660" fromJunction="J6" toJunction="J7" end="720" vehsPerHour="4.065237690319874"/>
  <flow id="JF75193" begin="660" fromJunction="J7" toJunction="J0" end="720" vehsPerHour="65.12628866616113"/>
  <flow id="JF75194" begin="660" fromJunction="J7" toJunction="J3" end="720" vehsPerHour="17.994744551325983"/>
  <flow id="JF75195" begin="660" fromJunction="J7" toJunction="J4" end="720" vehsPerHour="13.058160878904255"/>
  <flow id="JF75196" begin="720" fromJunction="J0" toJunction="J4" end="780" vehsPerHour="1.993035975508442"/>
  <flow id="JF75197" begin="720" fromJunction="J0" toJunction="J5" end="780" vehsPerHour="132.38134570205258"/>
  <flow id="JF75198" begin="720" fromJunction="J0" toJunction="J6" end="780" vehsPerHour="127.03038466974041"/>
  <flow id="JF75199" begin="720" fromJunction="J3" toJunction="J0" end="780" vehsPerHour="48.82612339679559"/>
  <flow id="JF75200" begin="720" fromJunction="J3" toJunction="J4" end="780" vehsPerHour="30.535835638710907"/>
  <flow id="JF75201" begin="720" fromJunction="J3" toJunction="J5" end="780" vehsPerHour="127.94061405420187"/>
  <flow id="JF75202" begin="720" fromJunction="J3" toJunction="J7" end="780" vehsPerHour="50.562682059036696"/>
  <flow id="JF75203" begin="720" fromJunction="J4" toJunction="J3" end="780" vehsPerHour="43.709346866560296"/>
  <flow id="JF75204" begin="720" fromJunction="J4" toJunction="J5" end="780" vehsPerHour="7.756514180657996"/>
  <flow id="JF75205" begin="720" fromJunction="J4" toJunction="J6" end="780" vehsPerHour="6.342617006213128"/>
  <flow id="JF75206" begin="720" fromJunction="J5" toJunction="J0" end="780" vehsPerHour="31.06740930854116"/>
  <flow id="JF75207" begin="720" fromJunction="J5" toJunction="J3" end="780" vehsPerHour="53.35224869850008"/>
  <flow id="JF75208" begin="720" fromJunction="J5" toJunction="J4" end="780" vehsPerHour="34.76006197343297"/>
  <flow id="JF75209" begin="720" fromJunction="J5" toJunction="J7" end="780" vehsPerHour="24.991030448450548"/>
  <flow id="JF75210" begin="720" fromJunction="J6" toJunction="J0" end="780" vehsPerHour="36.028806308004135"/>
  <flow id="JF75211" begin="720" fromJunction="J6" toJunction="J3" end="780" vehsPerHour="51.92983758461614"/>
  <flow id="JF75212" begin="720" fromJunction="J6" toJunction="J5" end="780" vehsPerHour="27.47440410475006"/>
  <flow id="JF75213" begin="720" fromJunction="J6" toJunction="J7" end="780" vehsPerHour="20.63318099711186"/>
  <flow id="JF75214" begin="720" fromJunction="J7" toJunction="J0" end="780" vehsPerHour="15.261241820299967"/>
  <flow id="JF75215" begin="720" fromJunction="J7" toJunction="J5" end="780" vehsPerHour="16.32565587816754"/>
  <flow id="JF75216" begin="720" fromJunction="J7" toJunction="J6" end="780" vehsPerHour="57.029723194992755"/>
  <flow id="JF75217" begin="780" fromJunction="J0" toJunction="J4" end="840" vehsPerHour="26.079792763021363"/>
  <flow id="JF75218" begin="780" fromJunction="J0" toJunction="J5" end="840" vehsPerHour="62.55338803499402"/>
  <flow id="JF75219" begin="780" fromJunction="J0" toJunction="J6" end="840" vehsPerHour="98.10677073076562"/>
  <flow id="JF75220" begin="780" fromJunction="J0" toJunction="J7" end="840" vehsPerHour="62.17419004292085"/>
  <flow id="JF75221" begin="780" fromJunction="J3" toJunction="J5" end="840" vehsPerHour="4.287475997444155"/>