<?xml version="1.0" encoding="UTF-8"?>
<routes xmlns:xsi="http://www.w3.org/2001/XMLSchema-instance" xsi:noNamespaceSchemaLocation="http://sumo.dlr.de/xsd/routes_file.xsd">
  <flow id="JF78513" begin="0" fromJunction="J0" toJunction="J4" end="60" vehsPerHour="67.0230411158385"/>
  <flow id="JF78514" begin="0" fromJunction="J0" toJunction="J5" end="60" vehsPerHour="20.822958005792753"/>
  <flow id="JF78515" begin="0" fromJunction="J0" toJunction="J6" end="60" vehsPerHour="61.662565358749646"/>
  <flow id="JF78516" begin="0" fromJunction="J0" toJunction="J7" end="60" vehsPerHour="20.78205359936031"/>
  <flow id="JF78517" begin="0" fromJunction="J3" toJunction="J5" end="60" vehsPerHour="86.17958162014281"/>
  <flow id="JF78518" begin="0" fromJunction="J3" toJunction="J6" end="60" vehsPerHour="14.41840797711542"/>
  <flow id="JF78519" begin="0" fromJunction="J3" toJunction="J7" end="60" vehsPerHour="108.53398737897481"/>
  <flow id="JF78520" begin="0" fromJunction="J4" toJunction="J0" end="60" vehsPerHour="64.09447938077243"/>
  <flow id="JF78521" begin="0" fromJunction="J4" toJunction="J3" end="60" vehsPerHour="8.215309065930638"/>
  <flow id="JF78522" begin="0" fromJunction="J4" toJunction="J5" end="60" vehsPerHour="60.11787529814678"/>
  <flow id="JF78523" begin="0" fromJunction="J4" toJunction="J6" end="60" vehsPerHour="57.705200626732235"/>
  <flow id="JF78524" begin="0" fromJunction="J4" toJunction="J7" end="60" vehsPerHour="8.753543775560791"/>
  <flow id="JF78525" begin="0" fromJunction="J5" toJunction="J0" end="60" vehsPerHour="21.86136769482541"/>
  <flow id="JF78526" begin="0" fromJunction="J5" toJunction="J7" end="60" vehsPerHour="27.610962012045068"/>
  <flow id="JF78527" begin="0" fromJunction="J6" toJunction="J0" end="60" vehsPerHour="54.21945445825951"/>
  <flow id="JF78528" begin="0" fromJunction="J6" toJunction="J3" end="60" vehsPerHour="67.26994346022038"/>
  <flow id="JF78529" begin="0" fromJunction="J6" toJunction="J5" end="60" vehsPerHour="49.93898302373915"/>
  <flow id="JF78530" begin="0" fromJunction="J7" toJunction="J3" end="60" vehsPerHour="34.43052719706153"/>
  <flow id="JF78531" begin="0" fromJunction="J7" toJunction="J4" end="60" vehsPerHour="23.937405768687658"/>
  <flow id="JF78532" begin="0" fromJunction="J7" toJunction="J5" end="60" vehsPerHour="4.1084854480458874"/>
  <flow id="JF78533" begin="0" fromJunction="J7" toJunction="J6" end="60" vehsPerHour="64.27784535908135"/>
  <flow id="JF78534" begin="60" fromJunction="J0" toJunction="J4" end="120" vehsPerHour="122.72546806864315"/>
  <flow id="JF78535" begin="60" fromJunction="J0" toJunction="J6" end="120" vehsPerHour="52.510311095163004"/>
  <flow id="JF78536" begin="60" fromJunction="J0" toJunction="J7" end="120" vehsPerHour="130.41951354818443"/>
  <flow id="JF78537" begin="60" fromJunction="J3" toJunction="J4" end="120" vehsPerHour="105.39105808573909"/>
  <flow id="JF78538" begin="60" fromJunction="J3" toJunction="J6" end="120" vehsPerHour="73.51525067434862"/>
  <flow id="JF78539" begin="60" fromJunction="J3" toJunction="J7" end="120" vehsPerHour="116.63083922062117"/>
  <flow id="JF78540" begin="60" fromJunction="J4" toJunction="J0" end="120" vehsPerHour="34.801649116544866"/>
  <flow id="JF78541" begin="60" fromJunction="J4" toJunction="J3" end="120" vehsPerHour="19.345490109757105"/>
  <flow id="JF78542" begin="60" fromJunction="J4" toJunction="J5" end="120" vehsPerHour="2.0875932522287455"/>
  <flow id="JF78543" begin="60" fromJunction="J4" toJunction="J7" end="120" vehsPerHour="35.007144526680484"/>
  <flow id="JF78544" begin="60" fromJunction="J5" toJunction="J0" end="120" vehsPerHour="17.982146672883413"/>
  <flow id="JF78545" begin="60" fromJunction="J5" toJunction="J6" end="120" vehsPerHour="42.70032819064821"/>
  <flow id="JF78546" begin="60" fromJunction="J5" toJunction="J7" end="120" vehsPerHour="15.41765709225576"/>
  <flow id="JF78547" begin="60" fromJunction="J6" toJunction="J0" end="120" vehsPerHour="21.818875463866608"/>
  <flow id="JF78548" begin="60" fromJunction="J6" toJunction="J3" end="120" vehsPerHour="7.468677625224125"/>
  <flow id="JF78549" begin="60" fromJunction="J6" toJunction="J4" end="120" vehsPerHour="61.43840903075696"/>
  <flow id="JF78550" begin="60" fromJunction="J6" toJunction="J5" end="120" vehsPerHour="45.672430678268576"/>
  <flow id="JF78551" begin="60" fromJunction="J6" toJunction="J7" end="120" vehsPerHour="51.67742907597548"/>
  <flow id="JF78552" begin="60" fromJunction="J7" toJunction="J3" end="120" vehsPerHour="13.860878424208677"/>
  <flow id="JF78553" begin="60" fromJunction="J7" toJunction="J4" end="120" vehsPerHour="17.493032355326118"/>
  <flow id="JF78554" begin="60" fromJunction="J7" toJunction="J5" end="120" vehsPerHour="8.301846947240643"/>
  <flow id="JF78555" begin="60" fromJunction="J7" toJunction="J6" end="120" vehsPerHour="31.37506122830247"/>
  <flow id="JF78556" begin="120" fromJunction="J0" toJunction="J3" end="180" vehsPerHour="126.92713036547224"/>
  <flow id="JF78557" begin="120" fromJunction="J0" toJunction="J5" end="180" vehsPerHour="3.2449841860977107"/>
  <flow id="JF78558" begin="120" fromJunction="J0" toJunction="J6" end="180" vehsPerHour="56.29079519272799"/>
  <flow id="JF78559" begin="120" fromJunction="J0" toJunction="J7" end="180" vehsPerHour="34.28393925804359"/>
  <flow id="JF78560" begin="120" fromJunction="J3" toJunction="J0" end="180" vehsPerHour="11.616499791328561"/>
  <flow id="JF78561" begin="120" fromJunction="J3" toJunction="J4" end="180" vehsPerHour="59.73554900348039"/>
  <flow id="JF78562" begin="120" fromJunction="J3" toJunction="J5" end="180" vehsPerHour="78.08592410928993"/>
  <flow id="JF78563" begin="120" fromJunction="J3" toJunction="J6" end="180" vehsPerHour="7.791245923445796"/>
  <flow id="JF78564" begin="120" fromJunction="J3" toJunction="J7" end="180" vehsPerHour="105.2733735646676"/>
  <flow id="JF78565" begin="120" fromJunction="J4" toJunction="J0" end="180" vehsPerHour="62.69991689304828"/>
  <flow id="JF78566" begin="120" fromJunction="J4" toJunction="J3" end="180" vehsPerHour="12.769732187131693"/>
  <flow id="JF78567" begin="120" fromJunction="J4" toJunction="J5" end="180" vehsPerHour="29.85541463277409"/>
  <flow id="JF78568" begin="120" fromJunction="J4" toJunction="J7" end="180" vehsPerHour="36.75492262800041"/>
  <flow id="JF78569" begin="120" fromJunction="J5" toJunction="J0" end="180" vehsPerHour="8.430799548177554"/>
  <flow id="JF78570" begin="120" fromJunction="J5" toJunction="J3" end="180" vehsPerHour="66.36177941934258"/>
  <flow id="JF78571" begin="120" fromJunction="J5" toJunction="J4" end="180" vehsPerHour="3.9617414912269386"/>
  <flow id="JF78572" begin="120" fromJunction="J5" toJunction="J6" end="180" vehsPerHour="33.26245539205154"/>
  <flow id="JF78573" begin="120" fromJunction="J5" toJunction="J7" end="180" vehsPerHour="53.66154588355902"/>
  <flow id="JF78574" begin="120" fromJunction="J6" toJunction="J0" end="180" vehsPerHour="66.73591239977527"/>
  <flow id="JF78575" begin="120" fromJunction="J6" toJunction="J5" end="180" vehsPerHour="40.53355433915266"/>
  <flow id="JF78576" begin="120" fromJunction="J6" toJunction="J7" end="180" vehsPerHour="40.769645970636155"/>
  <flow id="JF78577" begin="120" fromJunction="J7" toJunction="J0" end="180" vehsPerHour="39.502398808696654"/>
  <flow id="JF78578" begin="120" fromJunction="J7" toJunction="J4" end="180" vehsPerHour="24.81267890676625"/>
  <flow id="JF78579" begin="120" fromJunction="J7" toJunction="J5" end="180" vehsPerHour="17.023515871654823"/>
  <flow id="JF78580" begin="120" fromJunction="J7" toJunction="J6" end="180" vehsPerHour="65.35025181407202"/>
  <flow id="JF78581" begin="180" fromJunction="J0" toJunction="J3" end="240" vehsPerHour="75.09445097180969"/>
  <flow id="JF78582" begin="180" fromJunction="J0" toJunction="J4" end="240" vehsPerHour="105.06470136997076"/>
  <flow id="JF78583" begin="180" fromJunction="J3" toJunction="J0" end="240" vehsPerHour="51.214181970748285"/>
  <flow id="JF78584" begin="180" fromJunction="J3" toJunction="J4" end="240" vehsPerHour="28.631001912344065"/>
  <flow id="JF78585" begin="180" fromJunction="J3" toJunction="J5" end="240" vehsPerHour="118.11289979868681"/>
  <flow id="JF78586" begin="180" fromJunction="J3" toJunction="J7" end="240" vehsPerHour="122.3479073534899"/>
  <flow id="JF78587" begin="180" fromJunction="J4" toJunction="J0" end="240" vehsPerHour="58.770530634626574"/>
  <flow id="JF78588" begin="180" fromJunction="J4" toJunction="J3" end="240" vehsPerHour="28.199847940448365"/>
  <flow id="JF78589" begin="180" fromJunction="J4" toJunction="J5" end="240" vehsPerHour="6.522152870909707"/>
  <flow id="JF78590" begin="180" fromJunction="J4" toJunction="J6" end="240" vehsPerHour="23.73157968190421"/>
  <flow id="JF78591" begin="180" fromJunction="J4" toJunction="J7" end="240" vehsPerHour="35.707234943330434"/>
  <flow id="JF78592" begin="180" fromJunction="J5" toJunction="J0" end="240" vehsPerHour="10.78675968547706"/>
  <flow id="JF78593" begin="180" fromJunction="J5" toJunction="J3" end="240" vehsPerHour="5.445218495218936"/>
  <flow id="JF78594" begin="180" fromJunction="J5" toJunction="J4" end="240" vehsPerHour="39.67403577801387"/>
  <flow id="JF78595" begin="180" fromJunction="J5" toJunction="J6" end="240" vehsPerHour="22.090543366781098"/>
  <flow id="JF78596" begin="180" fromJunction="J5" toJunction="J7" end="240" vehsPerHour="49.71912845474547"/>
  <flow id="JF78597" begin="180" fromJunction="J6" toJunction="J0" end="240" vehsPerHour="54.269311600992616"/>
  <flow id="JF78598" begin="180" fromJunction="J6" toJunction="J4" end="240" vehsPerHour="58.34813640685142"/>
  <flow id="JF78599" begin="180" fromJunction="J6" toJunction="J5" end="240" vehsPerHour="33.837700908180295"/>
  <flow id="JF78600" begin="180" fromJunction="J6" toJunction="J7" end="240" vehsPerHour="64.85661052483538"/>
  <flow id="JF78601" begin="180" fromJunction="J7" toJunction="J0" end="240" vehsPerHour="61.4877309318667"/>
  <flow id="JF78602" begin="180" fromJunction="J7" toJunction="J3" end="240" vehsPerHour="65.46410530769053"/>
  <flow id="JF78603" begin="180" fromJunction="J7" toJunction="J6" end="240" vehsPerHour="35.67005466955053"/>
  <flow id="JF78604" begin="240" fromJunction="J0" toJunction="J3" end="300" vehsPerHour="129.7936569516514"/>
  <flow id="JF78605" begin="240" fromJunction="J0" toJunction="J5" end="300" vehsPerHour="90.41503473018015"/>
  <flow id="JF78606" begin="240" fromJunction="J0" toJunction="J6" end="300" vehsPerHour="45.75849042191011"/>
  <flow id="JF78607" begin="240" fromJunction="J0" toJunction="J7" end="300" vehsPerHour="59.43073603362238"/>
  <flow id="JF78608" begin="240" fromJunction="J3" toJunction="J0" end="300" vehsPerHour="114.19977147634867"/>
  <flow id="JF78609" begin="240" fromJunction="J3" toJunction="J6" end="300" vehsPerHour="19.560452733374245"/>
  <flow id="JF78610" begin="240" fromJunction="J3" toJunction="J7" end="300" vehsPerHour="89.93472758146478"/>
  <flow id="JF78611" begin="240" fromJunction="J4" toJunction="J0" end="300" vehsPerHour="31.844032497061363"/>
  <flow id="JF78612" begin="240" fromJunction="J4" toJunction="J3" end="300" vehsPerHour="23.190127226167203"/>
  <flow id="JF78613" begin="240" fromJunction="J4" toJunction="J5" end="300" vehsPerHour="4.383065884039017"/>
  <flow id="JF78614" begin="240" fromJunction="J4" toJunction="J7" end="300" vehsPerHour="13.38899717665892"/>
  <flow id="JF78615" begin="240" fromJunction="J5" toJunction="J0" end="300" vehsPerHour="44.006649568015256"/>
  <flow id="JF78616" begin="240" fromJunction="J5" toJunction="J3" end="300" vehsPerHour="18.61579556531152"/>
  <flow id="JF78617" begin="240" fromJunction="J5" toJunction="J6" end="300" vehsPerHour="26.901653339663305"/>
  <flow id="JF78618" begin="240" fromJunction="J5" toJunction="J7" end="300" vehsPerHour="7.451247566719852"/>
  <flow id="JF78619" begin="240" fromJunction="J6" toJunction="J3" end="300" vehsPerHour="2.875266569203979"/>
  <flow id="JF78620" begin="240" fromJunction="J6" toJunction="J4" end="300" vehsPerHour="66.0309394497614"/>
  <flow id="JF78621" begin="240" fromJunction="J6" toJunction="J5" end="300" vehsPerHour="14.944250229021215"/>
  <flow id="JF78622" begin="240" fromJunction="J6" toJunction="J7" end="300" vehsPerHour="5.851210640189472"/>
  <flow id="JF78623" begin="240" fromJunction="J7" toJunction="J0" end="300" vehsPerHour="4.876791767539629"/>
  <flow id="JF78624" begin="240" fromJunction="J7" toJunction="J3" end="300" vehsPerHour="51.16581163388458"/>
  <flow id="JF78625" begin="240" fromJunction="J7" toJunction="J4" end="300" vehsPerHour="32.733455660407884"/>
  <flow id="JF78626" begin="240" fromJunction="J7" toJunction="J5" end="300" vehsPerHour="34.04509060486414"/>
  <flow id="JF78627" begin="240" fromJunction="J7" toJunction="J6" end="300" vehsPerHour="19.897285633926558"/>
  <flow id="JF78628" begin="300" fromJunction="J0" toJunction="J3" end="360" vehsPerHour="4.07006977926133"/>
  <flow id="JF78629" begin="300" fromJunction="J0" toJunction="J4" end="360" vehsPerHour="12.169282641868127"/>
  <flow id="JF78630" begin="300" fromJunction="J0" toJunction="J7" end="360" vehsPerHour="23.83139775445489"/>
  <flow id="JF78631" begin="300" fromJunction="J3" toJunction="J0" end="360" vehsPerHour="77.46768180391788"/>
  <flow id="JF78632" begin="300" fromJunction="J3" toJunction="J4" end="360" vehsPerHour="49.89217259007983"/>
  <flow id="JF78633" begin="300" fromJunction="J3" toJunction="J5" end="360" vehsPerHour="113.65224040064507"/>
  <flow id="JF78634" begin="300" fromJunction="J3" toJunction="J7" end="360" vehsPerHour="63.271741515715235"/>
  <flow id="JF78635" begin="300" fromJunction="J4" toJunction="J3" end="360" vehsPerHour="9.682364597597322"/>
  <flow id="JF78636" begin="300" fromJunction="J4" toJunction="J5" end="360" vehsPerHour="64.38196946970515"/>
  <flow id="JF78637" begin="300" fromJunction="J4" toJunction="J6" end="360" vehsPerHour="66.29802532326998"/>
  <flow id="JF78638" begin="300" fromJunction="J4" toJunction="J7" end="360" vehsPerHour="55.12535244273349"/>
  <flow id="JF78639" begin="300" fromJunction="J5" toJunction="J3" end="360" vehsPerHour="4.773403426474771"/>
  <flow id="JF78640" begin="300" fromJunction="J5" toJunction="J4" end="360" vehsPerHour="41.97344942562748"/>
  <flow id="JF78641" begin="300" fromJunction="J5" toJunction="J7" end="360" vehsPerHour="38.444630500797714"/>
  <flow id="JF78642" begin="300" fromJunction="J6" toJunction="J0" end="360" vehsPerHour="7.310633808643796"/>
  <flow id="JF78643" begin="300" fromJunction="J6" toJunction="J3" end="360" vehsPerHour="18.937691877565648"/>
  <flow id="JF78644" begin="300" fromJunction="J6" toJunction="J4" end="360" vehsPerHour="11.06933712571226"/>
  <flow id="JF78645" begin="300" fromJunction="J6" toJunction="J7" end="360" vehsPerHour="67.73030649378968"/>
  <flow id="JF78646" begin="300" fromJunction="J7" toJunction="J0" end="360" vehsPerHour="31.2584030640452"/>
  <flow id="JF78647" begin="300" fromJunction="J7" toJunction="J3" end="360" vehsPerHour="59.760704140727576"/>
  <flow id="JF78648" begin="300" fromJunction="J7" toJunction="J4" end="360" vehsPerHour="7.91811388604211"/>
  <flow id="JF78649" begin="300" fromJunction="J7" toJunction="J5" end="360" vehsPerHour="47.37917577072055"/>
  <flow id="JF78650" begin="300" fromJunction="J7" toJunction="J6" end="360" vehsPerHour="23.88776512302802"/>
  <flow id="JF78651" begin="360" fromJunction="J0" toJunction="J3" end="420" vehsPerHour="24.82560192222932"/>
  <flow id="JF78652" begin="360" fromJunction="J0" toJunction="J4" end="420" vehsPerHour="108.16645065430718"/>
  <flow id="JF78653" begin="360" fromJunction="J0" toJunction="J5" end="420" vehsPerHour="132.77292633673923"/>
  <flow id="JF78654" begin="360" fromJunction="J0" toJunction="J6" end="420" vehsPerHour="43.53562070323762"/>
  <flow id="JF78655" begin="360" fromJunction="J0" toJunction="J7" end="420" vehsPerHour="26.94769198920519"/>
  <flow id="JF78656" begin="360" fromJunction="J3" toJunction="J0" end="420" vehsPerHour="95.42305674461485"/>
  <flow id="JF78657" begin="360" fromJunction="J3" toJunction="J4" end="420" vehsPerHour="58.91969199255233"/>
  <flow id="JF78658" begin="360" fromJunction="J3" toJunction="J5" end="420" vehsPerHour="36.62029905967246"/>
  <flow id="JF78659" begin="360" fromJunction="J3" toJunction="J6" end="420" vehsPerHour="113.25964936602897"/>
  <flow id="JF78660" begin="360" fromJunction="J3" toJunction="J7" end="420" vehsPerHour="28.976254369725925"/>
  <flow id="JF78661" begin="360" fromJunction="J4" toJunction="J0" end="420" vehsPerHour="58.96311762523526"/>
  <flow id="JF78662" begin="360" fromJunction="J4" toJunction="J3" end="420" vehsPerHour="18.096862965134683"/>
  <flow id="JF78663" begin="360" fromJunction="J4" toJunction="J5" end="420" vehsPerHour="1.0824625754330797"/>
  <flow id="JF78664" begin="360" fromJunction="J4" toJunction="J6" end="420" vehsPerHour="38.86550850132154"/>
  <flow id="JF78665" begin="360" fromJunction="J4" toJunction="J7" end="420" vehsPerHour="64.62532159543325"/>
  <flow id="JF78666" begin="360" fromJunction="J5" toJunction="J0" end="420" vehsPerHour="11.753092058945361"/>
  <flow id="JF78667" begin="360" fromJunction="J5" toJunction="J3" end="420" vehsPerHour="38.11005375713172"/>
  <flow id="JF78668" begin="360" fromJunction="J5" toJunction="J6" end="420" vehsPerHour="57.965371264711266"/>
  <flow id="JF78669" begin="360" fromJunction="J6" toJunction="J0" end="420" vehsPerHour="50.66440118364773"/>
  <flow id="JF78670" begin="360" fromJunction="J6" toJunction="J3" end="420" vehsPerHour="18.93183885622718"/>
  <flow id="JF78671" begin="360" fromJunction="J6" toJunction="J4" end="420" vehsPerHour="49.13221685780639"/>
  <flow id="JF78672" begin="360" fromJunction="J6" toJunction="J5" end="420" vehsPerHour="63.19803972063982"/>
  <flow id="JF78673" begin="360" fromJunction="J6" toJunction="J7" end="420" vehsPerHour="65.46610170299738"/>
  <flow id="JF78674" begin="360" fromJunction="J7" toJunction="J0" end="420" vehsPerHour="22.608388282458936"/>
  <flow id="JF78675" begin="360" fromJunction="J7" toJunction="J3" end="420" vehsPerHour="5.530345770636216"/>
  <flow id="JF78676" begin="360" fromJunction="J7" toJunction="J5" end="420" vehsPerHour="19.29891597551784"/>
  <flow id="JF78677" begin="420" fromJunction="J0" toJunction="J3" end="480" vehsPerHour="36.481142797720345"/>
  <flow id="JF78678" begin="420" fromJunction="J0" toJunction="J5" end="480" vehsPerHour="87.33347508145854"/>
  <flow id="JF78679" begin="420" fromJunction="J0" toJunction="J7" end="480" vehsPerHour="84.41443199612071"/>
  <flow id="JF78680" begin="420" fromJunction="J3" toJunction="J0" end="480" vehsPerHour="79.4943233689826"/>
  <flow id="JF78681" begin="420" fromJunction="J3" toJunction="J6" end="480" vehsPerHour="42.12027271314732"/>
  <flow id="JF78682" begin="420" fromJunction="J3" toJunction="J7" end="480" vehsPerHour="23.30044221906734"/>
  <flow id="JF78683" begin="420" fromJunction="J4" toJunction="J0" end="480" vehsPerHour="4.337455443645817"/>
  <flow id="JF78684" begin="420" fromJunction="J4" toJunction="J5" end="480" vehsPerHour="53.826693698969684"/>
  <flow id="JF78685" begin="420" fromJunction="J4" toJunction="J6" end="480" vehsPerHour="37.02828657133874"/>
  <flow id="JF78686" begin="420" fromJunction="J5" toJunction="J0" end="480" vehsPerHour="22.025220625572885"/>
  <flow id="JF78687" begin="420" fromJunction="J5" toJunction="J3" end="480" vehsPerHour="27.649829613417683"/>
  <flow id="JF78688" begin="420" fromJunction="J5" toJunction="J6" end="480" vehsPerHour="50.9978020402482"/>
  <flow id="JF78689" begin="420" fromJunction="J5" toJunction="J7" end="480" vehsPerHour="13.81449538820832"/>
  <flow id="JF78690" begin="420" fromJunction="J6" toJunction="J0" end="480" vehsPerHour="25.814040063796387"/>
  <flow id="JF78691" begin="420" fromJunction="J6" toJunction="J3" end="480" vehsPerHour="42.16027874236619"/>
  <flow id="JF78692" begin="420" fromJunction="J6" toJunction="J4" end="480" vehsPerHour="52.488483207264984"/>
  <flow id="JF78693" begin="420" fromJunction="J6" toJunction="J5" end="480" vehsPerHour="49.22539766047101"/>
  <flow id="JF78694" begin="420" fromJunction="J7" toJunction="J0" end="480" vehsPerHour="17.34543657756831"/>
  <flow id="JF78695" begin="420" fromJunction="J7" toJunction="J3" end="480" vehsPerHour="65.60831829801745"/>
  <flow id="JF78696" begin="420" fromJunction="J7" toJunction="J4" end="480" vehsPerHour="24.361449728735494"/>
  <flow id="JF78697" begin="480" fromJunction="J0" toJunction="J3" end="540" vehsPerHour="45.90076122753962"/>
  <flow id="JF78698" begin="480" fromJunction="J0" toJunction="J4" end="540" vehsPerHour="79.27836131319114"/>
  <flow id="JF78699" begin="480" fromJunction="J0" toJunction="J5" end="540" vehsPerHour="21.93502996819115"/>
  <flow id="JF78700" begin="480" fromJunction="J0" toJunction="J6" end="540" vehsPerHour="12.507910382406825"/>
  <flow id="JF78701" begin="480" fromJunction="J0" toJunction="J7" end="540" vehsPerHour="22.901539401628416"/>
  <flow id="JF78702" begin="480" fromJunction="J3" toJunction="J5" end="540" vehsPerHour="104.14615465237274"/>
  <flow id="JF78703" begin="480" fromJunction="J3" toJunction="J6" end="540" vehsPerHour="86.05281186207102"/>
  <flow id="JF78704" begin="480" fromJunction="J3" toJunction="J7" end="540" vehsPerHour="26.28585757497563"/>
  <flow id="JF78705" begin="480" fromJunction="J4" toJunction="J3" end="540" vehsPerHour="30.78250210493242"/>
  <flow id="JF78706" begin="480" fromJunction="J4" toJunction="J5" end="540" vehsPerHour="49.76590014110107"/>
  <flow id="JF78707" begin="480" fromJunction="J4" toJunction="J7" end="540" vehsPerHour="61.93624065541419"/>
  <flow id="JF78708" begin="480" fromJunction="J5" toJunction="J0" end="540" vehsPerHour="52.124065038134155"/>
  <flow id="JF78709" begin="480" fromJunction="J5" toJunction="J4" end="540" vehsPerHour="38.72306389873724"/>
  <flow id="JF78710" begin="480" fromJunction="J5" toJunction="J6" end="540" vehsPerHour="43.784581230421644"/>
  <flow id="JF78711" begin="480" fromJunction="J5" toJunction="J7" end="540" vehsPerHour="58.63158010271065"/>
  <flow id="JF78712" begin="480" fromJunction="J6" toJunction="J3" end="540" vehsPerHour="9.063178358040409"/>
  <flow id="JF78713" begin="480" fromJunction="J6" toJunction="J5" end="540" vehsPerHour="67.17400562587868"/>
  <flow id="JF78714" begin="480" fromJunction="J6" toJunction="J7" end="540" vehsPerHour="43.60076907505274"/>
  <flow id="JF78715" begin="480" fromJunction="J7" toJunction="J3" end="540" vehsPerHour="29.60486386432965"/>
  <flow id="JF78716" begin="480" fromJunction="J7" toJunction="J4" end="540" vehsPerHour="6.491495956488552"/>
  <flow id="JF78717" begin="480" fromJunction="J7" toJunction="J5" end="540" vehsPerHour="45.73045769784849"/>
  <flow id="JF78718" begin="480" fromJunction="J7" toJunction="J6" end="540" vehsPerHour="24.96600002784889"/>
  <flow id="JF78719" begin="540" fromJunction="J0" toJunction="J3" end="600" vehsPerHour="131.85392868544537"/>
  <flow id="JF78720" begin="540" fromJunction="J0" toJunction="J4" end="600" vehsPerHour="68.94979807287747"/>
  <flow id="JF78721" begin="540" fromJunction="J0" toJunction="J6" end="600" vehsPerHour="54.881701094464994"/>
  <flow id="JF78722" begin="540" fromJunction="J0" toJunction="J7" end="600" vehsPerHour="128.6916586001093"/>
  <flow id="JF78723" begin="540" fromJunction="J3" toJunction="J5" end="600" vehsPerHour="27.731023200475146"/>
  <flow id="JF78724" begin="540" fromJunction="J4" toJunction="J0" end="600" vehsPerHour="32.40535851925656"/>
  <flow id="JF78725" begin="540" fromJunction="J4" toJunction="J3" end="600" vehsPerHour="10.830909446056705"/>
  <flow id="JF78726" begin="540" fromJunction="J4" toJunction="J5" end="600" vehsPerHour="38.16815427405912"/>
  <flow id="JF78727" begin="540" fromJunction="J4" toJunction="J6" end="600" vehsPerHour="57.21931384288076"/>
  <flow id="JF78728" begin="540" fromJunction="J4" toJunction="J7" end="600" vehsPerHour="59.71842807449857"/>
  <flow id="JF78729" begin="540" fromJunction="J5" toJunction="J0" end="600" vehsPerHour="31.92090960406814"/>
  <flow id="JF78730" begin="540" fromJunction="J5" toJunction="J3" end="600" vehsPerHour="59.52708531058055"/>
  <flow id="JF78731" begin="540" fromJunction="J5" toJunction="J4" end="600" vehsPerHour="42.08896372806073"/>
  <flow id="JF78732" begin="540" fromJunction="J5" toJunction="J7" end="600" vehsPerHour="66.44197236404142"/>
  <flow id="JF78733" begin="540" fromJunction="J6" toJunction="J0" end="600" vehsPerHour="37.09241523476191"/>
  <flow id="JF78734" begin="540" fromJunction="J6" toJunction="J3" end="600" vehsPerHour="29.82608020467853"/>
  <flow id="JF78735" begin="540" fromJunction="J6" toJunction="J4" end="600" vehsPerHour="10.471835580398132"/>
  <flow id="JF78736" begin="540" fromJunction="J6" toJunction="J5" end="600" vehsPerHour="30.153628142887413"/>
  <flow id="JF78737" begin="540" fromJunction="J6" toJunction="J7" end="600" vehsPerHour="19.287973028210885"/>
  <flow id="JF78738" begin="540" fromJunction="J7" toJunction="J0" end="600" vehsPerHour="36.697071029671314"/>
  <flow id="JF78739" begin="540" fromJunction="J7" toJunction="J4" end="600" vehsPerHour="39.50467905705777"/>
  <flow id="JF78740" begin="540" fromJunction="J7" toJunction="J5" end="600" vehsPerHour="8.408373632273802"/>
  <flow id="JF78741" begin="600" fromJunction="J0" toJunction="J4" end="660" vehsPerHour="78.56668139270235"/>
  <flow id="JF78742" begin="600" fromJunction="J0" toJunction="J5" end="660" vehsPerHour="119.02426272454119"/>
  <flow id="JF78743" begin="600" fromJunction="J0" toJunction="J6" end="660" vehsPerHour="19.904765512525845"/>
  <flow id="JF78744" begin="600" fromJunction="J0" toJunction="J7" end="660" vehsPerHour="79.2588986289374"/>
  <flow id="JF78745" begin="600" fromJunction="J3" toJunction="J7" end="660" vehsPerHour="107.03967975240782"/>
  <flow id="JF78746" begin="600" fromJunction="J4" toJunction="J0" end="660" vehsPerHour="68.32526452273102"/>
  <flow id="JF78747" begin="600" fromJunction="J4" toJunction="J5" end="660" vehsPerHour="53.314707589359294"/>
  <flow id="JF78748" begin="600" fromJunction="J4" toJunction="J7" end="660" vehsPerHour="17.541264992185926"/>
  <flow id="JF78749" begin="600" fromJunction="J5" toJunction="J0" end="660" vehsPerHour="48.38900856575024"/>
  <flow id="JF78750" begin="600" fromJunction="J5" toJunction="J3" end="660" vehsPerHour="53.95477148687343"/>
  <flow id="JF78751" begin="600" fromJunction="J5" toJunction="J6" end="660" vehsPerHour="29.99226308608327"/>
  <flow id="JF78752" begin="600" fromJunction="J5" toJunction="J7" end="660" vehsPerHour="65.38119359026388"/>
  <flow id="JF78753" begin="600" fromJunction="J6" toJunction="J0" end="660" vehsPerHour="50.98878609754181"/>
  <flow id="JF78754" begin="600" fromJunction="J6" toJunction="J3" end="660" vehsPerHour="37.31428078633768"/>
  <flow id="JF78755" begin="600" fromJunction="J6" toJunction="J4" end="660" vehsPerHour="3.4234069149266078"/>
  <flow id="JF78756" begin="600" fromJunction="J6" toJunction="J5" end="660" vehsPerHour="61.7727931696189"/>
  <flow id="JF78757" begin="600" fromJunction="J6" toJunction="J7" end="660" vehsPerHour="52.03581159861413"/>
  <flow id="JF78758" begin="600" fromJunction="J7" toJunction="J0" end="660" vehsPerHour="46.00069395740106"/>
  <flow id="JF78759" begin="600" fromJunction="J7" toJunction="J4" end="660" vehsPerHour="19.796311179142585"/>
  <flow id="JF78760" begin="600" fromJunction="J7" toJunction="J5" end="660" vehsPerHour="48.065714503182164"/>
  <flow id="JF78761" begin="660" fromJunction="J0" toJunction="J3" end="720" vehsPerHour="114.9513712109403"/>
  <flow id="JF78762" begin="660" fromJunction="J0" toJunction="J5" end="720" vehsPerHour="61.22679835203948"/>
  <flow id="JF78763" begin="660" fromJunction="J0" toJunction="J7" end="720" vehsPerHour="120.61435278075317"/>
  <flow id="JF78764" begin="660" fromJunction="J3" toJunction="J4" end="720" vehsPerHour="80.26719287834504"/>
  <flow id="JF78765" begin="660" fromJunction="J3" toJunction="J6" end="720" vehsPerHour="32.43410283955516"/>
  <flow id="JF78766" begin="660" fromJunction="J4" toJunction="J0" end="720" vehsPerHour="36.79634676337205"/>
  <flow id="JF78767" begin="660" fromJunction="J4" toJunction="J3" end="720" vehsPerHour="51.541955416278306"/>
  <flow id="JF78768" begin="660" fromJunction="J4" toJunction="J5" end="720" vehsPerHour="13.898829958479423"/>
  <flow id="JF78769" begin="660" fromJunction="J5" toJunction="J0" end="720" vehsPerHour="54.246550292009715"/>
  <flow id="JF78770" begin="660" fromJunction="J5" toJunction="J3" end="720" vehsPerHour="63.3584840265128"/>
  <flow id="JF78771" begin="660" fromJunction="J5" toJunction="J6" end="720" vehsPerHour="7.9373804523570115"/>
  <flow id="JF78772" begin="660" fromJunction="J5" toJunction="J7" end="720" vehsPerHour="42.45569763290365"/>
  <flow id="JF78773" begin="660" fromJunction="J6" toJunction="J0" end="720" vehsPerHour="3.8337534520847196"/>
  <flow id="JF78774" begin="660" fromJunction="J6" toJunction="J3" end="720" vehsPerHour="32.41633336887936"/>
  <flow id="JF78775" begin="660" fromJunction="J6" toJunction="J4" end="720" vehsPerHour="58.19847932790197"/>
  <flow id="JF78776" begin="660" fromJunction="J6" toJunction="J5" end="720" vehsPerHour="46.094852240751344"/>
  <flow id="JF78777" begin="660" fromJunction="J6" toJunction="J7" end="720" vehsPerHour="5.437655112007992"/>
  <flow id="JF78778" begin="660" fromJunction="J7" toJunction="J0" end="720" vehsPerHour="33.19108195547915"/>
  <flow id="JF78779" begin="660" fromJunction="J7" toJunction="J5" end="720" vehsPerHour="16.3307606841524"/>
  <flow id="JF78780" begin="660" fromJunction="J7" toJunction="J6" end="720" vehsPerHour="52.84955775571682"/>