<?xml version="1.0" encoding="UTF-8"?>
<routes xmlns:xsi="http://www.w3.org/2001/XMLSchema-instance" xsi:noNamespaceSchemaLocation="http://sumo.dlr.de/xsd/routes_file.xsd">
  <flow id="JF80308" begin="0" fromJunction="J0" toJunction="J4" end="60" vehsPerHour="72.75429370912134"/>
  <flow id="JF80309" begin="0" fromJunction="J0" toJunction="J5" end="60" vehsPerHour="41.77591834203697"/>
  <flow id="JF80310" begin="0" fromJunction="J0" toJunction="J6" end="60" vehsPerHour="24.517413435954904"/>
  <flow id="JF80311" begin="0" fromJunction="J0" toJunction="J7" end="60" vehsPerHour="32.55750684845958"/>
  <flow id="JF80312" begin="0" fromJunction="J3" toJunction="J4" end="60" vehsPerHour="108.04554240564525"/>
  <flow id="JF80313" begin="0" fromJunction="J3" toJunction="J6" end="60" vehsPerHour="112.94482158035183"/>
  <flow id="JF80314" begin="0" fromJunction="J3" toJunction="J7" end="60" vehsPerHour="91.6725994639158"/>
  <flow id="JF80315" begin="0" fromJunction="J4" toJunction="J3" end="60" vehsPerHour="5.417954425737044"/>
  <flow id="JF80316" begin="0" fromJunction="J4" toJunction="J5" end="60" vehsPerHour="53.59405484977242"/>
  <flow id="JF80317" begin="0" fromJunction="J4" toJunction="J7" end="60" vehsPerHour="48.35507184669249"/>
  <flow id="JF80318" begin="0" fromJunction="J5" toJunction="J3" end="60" vehsPerHour="3.4975615710785446"/>
  <flow id="JF80319" begin="0" fromJunction="J5" toJunction="J4" end="60" vehsPerHour="63.637557465226024"/>
  <flow id="JF80320" begin="0" fromJunction="J5" toJunction="J6" end="60" vehsPerHour="18.164315379629105"/>
  <flow id="JF80321" begin="0" fromJunction="J5" toJunction="J7" end="60" vehsPerHour="37.58824644562801"/>
  <flow id="JF80322" begin="0" fromJunction="J6" toJunction="J0" end="60" vehsPerHour="12.239979093338778"/>
  <flow id="JF80323" begin="0" fromJunction="J6" toJunction="J3" end="60" vehsPerHour="52.96282246301815"/>
  <flow id="JF80324" begin="0" fromJunction="J6" toJunction="J4" end="60" vehsPerHour="35.80922738490874"/>
  <flow id="JF80325" begin="0" fromJunction="J6" toJunction="J7" end="60" vehsPerHour="7.950190819871185"/>
  <flow id="JF80326" begin="0" fromJunction="J7" toJunction="J0" end="60" vehsPerHour="63.93039627265283"/>
  <flow id="JF80327" begin="0" fromJunction="J7" toJunction="J3" end="60" vehsPerHour="63.42619397487718"/>
  <flow id="JF80328" begin="0" fromJunction="J7" toJunction="J4" end="60" vehsPerHour="15.952089562612409"/>
  <flow id="JF80329" begin="0" fromJunction="J7" toJunction="J5" end="60" vehsPerHour="15.252984542006814"/>
  <flow id="JF80330" begin="0" fromJunction="J7" toJunction="J6" end="60" vehsPerHour="50.697959800125965"/>
  <flow id="JF80331" begin="60" fromJunction="J0" toJunction="J5" end="120" vehsPerHour="90.77187714445667"/>
  <flow id="JF80332" begin="60" fromJunction="J0" toJunction="J6" end="120" vehsPerHour="83.22315275716126"/>
  <flow id="JF80333" begin="60" fromJunction="J0" toJunction="J7" end="120" vehsPerHour="79.46079475881065"/>
  <flow id="JF80334" begin="60" fromJunction="J3" toJunction="J4" end="120" vehsPerHour="120.91798461108962"/>
  <flow id="JF80335" begin="60" fromJunction="J3" toJunction="J6" end="120" vehsPerHour="64.16775140723814"/>
  <flow id="JF80336" begin="60" fromJunction="J4" toJunction="J0" end="120" vehsPerHour="24.984189553825228"/>
  <flow id="JF80337" begin="60" fromJunction="J4" toJunction="J5" end="120" vehsPerHour="2.3453370239714877"/>
  <flow id="JF80338" begin="60" fromJunction="J4" toJunction="J6" end="120" vehsPerHour="67.55356307587004"/>
  <flow id="JF80339" begin="60" fromJunction="J4" toJunction="J7" end="120" vehsPerHour="32.192874974210746"/>
  <flow id="JF80340" begin="60" fromJunction="J5" toJunction="J0" end="120" vehsPerHour="13.819882434806686"/>
  <flow id="JF80341" begin="60" fromJunction="J5" toJunction="J4" end="120" vehsPerHour="7.374437578754012"/>
  <flow id="JF80342" begin="60" fromJunction="J5" toJunction="J6" end="120" vehsPerHour="59.526826230333235"/>
  <flow id="JF80343" begin="60" fromJunction="J6" toJunction="J3" end="120" vehsPerHour="4.618341070393204"/>
  <flow id="JF80344" begin="60" fromJunction="J6" toJunction="J4" end="120" vehsPerHour="47.592616531843525"/>
  <flow id="JF80345" begin="60" fromJunction="J6" toJunction="J5" end="120" vehsPerHour="57.422265457007555"/>
  <flow id="JF80346" begin="60" fromJunction="J6" toJunction="J7" end="120" vehsPerHour="64.88628711262547"/>
  <flow id="JF80347" begin="60" fromJunction="J7" toJunction="J0" end="120" vehsPerHour="47.68564683807392"/>
  <flow id="JF80348" begin="60" fromJunction="J7" toJunction="J3" end="120" vehsPerHour="60.25648965658978"/>
  <flow id="JF80349" begin="60" fromJunction="J7" toJunction="J4" end="120" vehsPerHour="60.565256755625484"/>
  <flow id="JF80350" begin="60" fromJunction="J7" toJunction="J5" end="120" vehsPerHour="44.32800695215154"/>
  <flow id="JF80351" begin="60" fromJunction="J7" toJunction="J6" end="120" vehsPerHour="31.06550172363029"/>
  <flow id="JF80352" begin="120" fromJunction="J0" toJunction="J4" end="180" vehsPerHour="2.307310942830031"/>
  <flow id="JF80353" begin="120" fromJunction="J0" toJunction="J7" end="180" vehsPerHour="37.48725218966717"/>
  <flow id="JF80354" begin="120" fromJunction="J3" toJunction="J4" end="180" vehsPerHour="116.94645337080141"/>
  <flow id="JF80355" begin="120" fromJunction="J3" toJunction="J5" end="180" vehsPerHour="131.09247418055506"/>
  <flow id="JF80356" begin="120" fromJunction="J3" toJunction="J6" end="180" vehsPerHour="64.26022746630593"/>
  <flow id="JF80357" begin="120" fromJunction="J3" toJunction="J7" end="180" vehsPerHour="48.109960168426255"/>
  <flow id="JF80358" begin="120" fromJunction="J4" toJunction="J0" end="180" vehsPerHour="0.7647618370797717"/>
  <flow id="JF80359" begin="120" fromJunction="J4" toJunction="J3" end="180" vehsPerHour="46.73482030011402"/>
  <flow id="JF80360" begin="120" fromJunction="J4" toJunction="J5" end="180" vehsPerHour="24.598963315704864"/>
  <flow id="JF80361" begin="120" fromJunction="J4" toJunction="J7" end="180" vehsPerHour="35.25277583231223"/>
  <flow id="JF80362" begin="120" fromJunction="J5" toJunction="J0" end="180" vehsPerHour="50.57726892986934"/>
  <flow id="JF80363" begin="120" fromJunction="J5" toJunction="J3" end="180" vehsPerHour="31.14143176520506"/>
  <flow id="JF80364" begin="120" fromJunction="J5" toJunction="J4" end="180" vehsPerHour="20.292207151860286"/>
  <flow id="JF80365" begin="120" fromJunction="J5" toJunction="J7" end="180" vehsPerHour="64.56699621010667"/>
  <flow id="JF80366" begin="120" fromJunction="J6" toJunction="J0" end="180" vehsPerHour="55.850900311968545"/>
  <flow id="JF80367" begin="120" fromJunction="J6" toJunction="J3" end="180" vehsPerHour="39.9333037130533"/>
  <flow id="JF80368" begin="120" fromJunction="J6" toJunction="J4" end="180" vehsPerHour="23.157125207960174"/>
  <flow id="JF80369" begin="120" fromJunction="J6" toJunction="J5" end="180" vehsPerHour="63.92193452694814"/>
  <flow id="JF80370" begin="120" fromJunction="J6" toJunction="J7" end="180" vehsPerHour="14.941714572381647"/>
  <flow id="JF80371" begin="120" fromJunction="J7" toJunction="J0" end="180" vehsPerHour="27.54665356677505"/>
  <flow id="JF80372" begin="120" fromJunction="J7" toJunction="J3" end="180" vehsPerHour="26.455045614105185"/>
  <flow id="JF80373" begin="120" fromJunction="J7" toJunction="J5" end="180" vehsPerHour="46.3344400030659"/>
  <flow id="JF80374" begin="120" fromJunction="J7" toJunction="J6" end="180" vehsPerHour="33.26298327730826"/>
  <flow id="JF80375" begin="180" fromJunction="J0" toJunction="J3" end="240" vehsPerHour="59.390595268473156"/>
  <flow id="JF80376" begin="180" fromJunction="J0" toJunction="J4" end="240" vehsPerHour="67.15441308829156"/>
  <flow id="JF80377" begin="180" fromJunction="J0" toJunction="J5" end="240" vehsPerHour="13.545477081025272"/>
  <flow id="JF80378" begin="180" fromJunction="J0" toJunction="J6" end="240" vehsPerHour="29.917514003544632"/>
  <flow id="JF80379" begin="180" fromJunction="J0" toJunction="J7" end="240" vehsPerHour="56.16334888171657"/>
  <flow id="JF80380" begin="180" fromJunction="J3" toJunction="J4" end="240" vehsPerHour="49.56199605330527"/>
  <flow id="JF80381" begin="180" fromJunction="J3" toJunction="J6" end="240" vehsPerHour="59.92066701249842"/>
  <flow id="JF80382" begin="180" fromJunction="J3" toJunction="J7" end="240" vehsPerHour="134.8680358066146"/>
  <flow id="JF80383" begin="180" fromJunction="J4" toJunction="J6" end="240" vehsPerHour="2.1940668959582093"/>
  <flow id="JF80384" begin="180" fromJunction="J4" toJunction="J7" end="240" vehsPerHour="29.77397822094428"/>
  <flow id="JF80385" begin="180" fromJunction="J5" toJunction="J3" end="240" vehsPerHour="47.48679010842614"/>
  <flow id="JF80386" begin="180" fromJunction="J5" toJunction="J4" end="240" vehsPerHour="1.4499898944133942"/>
  <flow id="JF80387" begin="180" fromJunction="J5" toJunction="J7" end="240" vehsPerHour="4.609282324961101"/>
  <flow id="JF80388" begin="180" fromJunction="J6" toJunction="J0" end="240" vehsPerHour="12.6287608117487"/>
  <flow id="JF80389" begin="180" fromJunction="J6" toJunction="J3" end="240" vehsPerHour="30.345538516296816"/>
  <flow id="JF80390" begin="180" fromJunction="J6" toJunction="J5" end="240" vehsPerHour="13.129895805966475"/>
  <flow id="JF80391" begin="180" fromJunction="J7" toJunction="J0" end="240" vehsPerHour="25.259327350313615"/>
  <flow id="JF80392" begin="180" fromJunction="J7" toJunction="J3" end="240" vehsPerHour="18.58798382644498"/>
  <flow id="JF80393" begin="180" fromJunction="J7" toJunction="J5" end="240" vehsPerHour="29.769052465784224"/>
  <flow id="JF80394" begin="180" fromJunction="J7" toJunction="J6" end="240" vehsPerHour="21.0209276496172"/>
  <flow id="JF80395" begin="240" fromJunction="J0" toJunction="J3" end="300" vehsPerHour="121.77717574553809"/>
  <flow id="JF80396" begin="240" fromJunction="J0" toJunction="J4" end="300" vehsPerHour="38.85327780046956"/>
  <flow id="JF80397" begin="240" fromJunction="J0" toJunction="J5" end="300" vehsPerHour="123.75262276165326"/>
  <flow id="JF80398" begin="240" fromJunction="J0" toJunction="J6" end="300" vehsPerHour="28.70556688672509"/>
  <flow id="JF80399" begin="240" fromJunction="J0" toJunction="J7" end="300" vehsPerHour="56.4971495285667"/>
  <flow id="JF80400" begin="240" fromJunction="J4" toJunction="J0" end="300" vehsPerHour="14.467126787703485"/>
  <flow id="JF80401" begin="240" fromJunction="J4" toJunction="J3" end="300" vehsPerHour="67.43143265472214"/>
  <flow id="JF80402" begin="240" fromJunction="J4" toJunction="J6" end="300" vehsPerHour="30.444673055566017"/>
  <flow id="JF80403" begin="240" fromJunction="J4" toJunction="J7" end="300" vehsPerHour="60.60580604781646"/>
  <flow id="JF80404" begin="240" fromJunction="J5" toJunction="J0" end="300" vehsPerHour="0.2838430189470931"/>
  <flow id="JF80405" begin="240" fromJunction="J5" toJunction="J3" end="300" vehsPerHour="64.31324463276916"/>
  <flow id="JF80406" begin="240" fromJunction="J5" toJunction="J4" end="300" vehsPerHour="25.87218706425916"/>
  <flow id="JF80407" begin="240" fromJunction="J5" toJunction="J6" end="300" vehsPerHour="2.0696384435004944"/>
  <flow id="JF80408" begin="240" fromJunction="J6" toJunction="J0" end="300" vehsPerHour="35.060214264739834"/>
  <flow id="JF80409" begin="240" fromJunction="J6" toJunction="J3" end="300" vehsPerHour="58.446227860904465"/>
  <flow id="JF80410" begin="240" fromJunction="J6" toJunction="J4" end="300" vehsPerHour="15.988826602288654"/>
  <flow id="JF80411" begin="240" fromJunction="J6" toJunction="J5" end="300" vehsPerHour="55.14162113820011"/>
  <flow id="JF80412" begin="240" fromJunction="J7" toJunction="J0" end="300" vehsPerHour="57.71545001216432"/>
  <flow id="JF80413" begin="240" fromJunction="J7" toJunction="J3" end="300" vehsPerHour="59.51866206804195"/>
  <flow id="JF80414" begin="240" fromJunction="J7" toJunction="J5" end="300" vehsPerHour="32.52053998851884"/>
  <flow id="JF80415" begin="240" fromJunction="J7" toJunction="J6" end="300" vehsPerHour="58.480189925888155"/>
  <flow id="JF80416" begin="300" fromJunction="J0" toJunction="J3" end="360" vehsPerHour="87.14224811707646"/>
  <flow id="JF80417" begin="300" fromJunction="J0" toJunction="J4" end="360" vehsPerHour="72.637281771102"/>
  <flow id="JF80418" begin="300" fromJunction="J0" toJunction="J6" end="360" vehsPerHour="19.944088715412132"/>
  <flow id="JF80419" begin="300" fromJunction="J0" toJunction="J7" end="360" vehsPerHour="71.1200037499963"/>
  <flow id="JF80420" begin="300" fromJunction="J3" toJunction="J4" end="360" vehsPerHour="29.96028056516565"/>
  <flow id="JF80421" begin="300" fromJunction="J3" toJunction="J5" end="360" vehsPerHour="81.57107618717234"/>
  <flow id="JF80422" begin="300" fromJunction="J3" toJunction="J6" end="360" vehsPerHour="108.40225310611072"/>
  <flow id="JF80423" begin="300" fromJunction="J3" toJunction="J7" end="360" vehsPerHour="115.90576360771173"/>
  <flow id="JF80424" begin="300" fromJunction="J4" toJunction="J0" end="360" vehsPerHour="1.5366685009136996"/>
  <flow id="JF80425" begin="300" fromJunction="J4" toJunction="J3" end="360" vehsPerHour="55.81147086334627"/>
  <flow id="JF80426" begin="300" fromJunction="J4" toJunction="J5" end="360" vehsPerHour="14.163240446801494"/>
  <flow id="JF80427" begin="300" fromJunction="J5" toJunction="J0" end="360" vehsPerHour="31.72974016114217"/>
  <flow id="JF80428" begin="300" fromJunction="J5" toJunction="J6" end="360" vehsPerHour="66.21662850008681"/>
  <flow id="JF80429" begin="300" fromJunction="J5" toJunction="J7" end="360" vehsPerHour="50.125684737400334"/>
  <flow id="JF80430" begin="300" fromJunction="J6" toJunction="J0" end="360" vehsPerHour="23.23926047558408"/>
  <flow id="JF80431" begin="300" fromJunction="J6" toJunction="J3" end="360" vehsPerHour="27.835967439171657"/>
  <flow id="JF80432" begin="300" fromJunction="J7" toJunction="J0" end="360" vehsPerHour="11.479550070658496"/>
  <flow id="JF80433" begin="300" fromJunction="J7" toJunction="J3" end="360" vehsPerHour="59.45691789955855"/>
  <flow id="JF80434" begin="300" fromJunction="J7" toJunction="J4" end="360" vehsPerHour="48.2851685960188"/>
  <flow id="JF80435" begin="300" fromJunction="J7" toJunction="J6" end="360" vehsPerHour="0.45376225697646205"/>
  <flow id="JF80436" begin="360" fromJunction="J0" toJunction="J4" end="420" vehsPerHour="70.12892182605898"/>
  <flow id="JF80437" begin="360" fromJunction="J0" toJunction="J5" end="420" vehsPerHour="106.07991860131183"/>
  <flow id="JF80438" begin="360" fromJunction="J0" toJunction="J6" end="420" vehsPerHour="45.82287825764998"/>
  <flow id="JF80439" begin="360" fromJunction="J0" toJunction="J7" end="420" vehsPerHour="39.92928738132342"/>
  <flow id="JF80440" begin="360" fromJunction="J3" toJunction="J4" end="420" vehsPerHour="15.887030491494828"/>
  <flow id="JF80441" begin="360" fromJunction="J3" toJunction="J6" end="420" vehsPerHour="127.67546713264161"/>
  <flow id="JF80442" begin="360" fromJunction="J3" toJunction="J7" end="420" vehsPerHour="9.416155721937905"/>
  <flow id="JF80443" begin="360" fromJunction="J4" toJunction="J3" end="420" vehsPerHour="59.91207205358656"/>
  <flow id="JF80444" begin="360" fromJunction="J4" toJunction="J5" end="420" vehsPerHour="31.225731372556297"/>
  <flow id="JF80445" begin="360" fromJunction="J4" toJunction="J7" end="420" vehsPerHour="44.45859640797617"/>
  <flow id="JF80446" begin="360" fromJunction="J5" toJunction="J0" end="420" vehsPerHour="3.333456558271169"/>
  <flow id="JF80447" begin="360" fromJunction="J5" toJunction="J3" end="420" vehsPerHour="11.122761339224711"/>
  <flow id="JF80448" begin="360" fromJunction="J5" toJunction="J4" end="420" vehsPerHour="58.1161204892109"/>
  <flow id="JF80449" begin="360" fromJunction="J5" toJunction="J6" end="420" vehsPerHour="11.633518288731853"/>
  <flow id="JF80450" begin="360" fromJunction="J6" toJunction="J0" end="420" vehsPerHour="3.1143350633327667"/>
  <flow id="JF80451" begin="360" fromJunction="J6" toJunction="J3" end="420" vehsPerHour="26.757981990326012"/>
  <flow id="JF80452" begin="360" fromJunction="J6" toJunction="J4" end="420" vehsPerHour="46.38066956486334"/>
  <flow id="JF80453" begin="360" fromJunction="J6" toJunction="J5" end="420" vehsPerHour="42.08319590601085"/>
  <flow id="JF80454" begin="360" fromJunction="J6" toJunction="J7" end="420" vehsPerHour="23.175957963924347"/>
  <flow id="JF80455" begin="360" fromJunction="J7" toJunction="J0" end="420" vehsPerHour="25.527701060208887"/>
  <flow id="JF80456" begin="360" fromJunction="J7" toJunction="J3" end="420" vehsPerHour="28.725488551536813"/>
  <flow id="JF80457" begin="360" fromJunction="J7" toJunction="J4" end="420" vehsPerHour="66.93444189096206"/>
  <flow id="JF80458" begin="360" fromJunction="J7" toJunction="J6" end="420" vehsPerHour="13.60727885610368"/>
  <flow id="JF80459" begin="420" fromJunction="J0" toJunction="J5" end="480" vehsPerHour="108.94963423832333"/>
  <flow id="JF80460" begin="420" fromJunction="J0" toJunction="J6" end="480" vehsPerHour="132.0963445655529"/>
  <flow id="JF80461" begin="420" fromJunction="J3" toJunction="J0" end="480" vehsPerHour="40.74866511379909"/>
  <flow id="JF80462" begin="420" fromJunction="J3" toJunction="J4" end="480" vehsPerHour="79.07661550886864"/>
  <flow id="JF80463" begin="420" fromJunction="J3" toJunction="J6" end="480" vehsPerHour="72.77142249642213"/>
  <flow id="JF80464" begin="420" fromJunction="J3" toJunction="J7" end="480" vehsPerHour="57.437602487537745"/>
  <flow id="JF80465" begin="420" fromJunction="J4" toJunction="J0" end="480" vehsPerHour="53.880251914035554"/>
  <flow id="JF80466" begin="420" fromJunction="J4" toJunction="J5" end="480" vehsPerHour="51.99970701542814"/>
  <flow id="JF80467" begin="420" fromJunction="J4" toJunction="J7" end="480" vehsPerHour="24.975004141325226"/>
  <flow id="JF80468" begin="420" fromJunction="J5" toJunction="J0" end="480" vehsPerHour="36.06623951390225"/>
  <flow id="JF80469" begin="420" fromJunction="J5" toJunction="J3" end="480" vehsPerHour="21.53638590173135"/>
  <flow id="JF80470" begin="420" fromJunction="J5" toJunction="J6" end="480" vehsPerHour="11.709824869674897"/>
  <flow id="JF80471" begin="420" fromJunction="J5" toJunction="J7" end="480" vehsPerHour="39.54981594800893"/>
  <flow id="JF80472" begin="420" fromJunction="J6" toJunction="J0" end="480" vehsPerHour="60.646014748034595"/>
  <flow id="JF80473" begin="420" fromJunction="J6" toJunction="J3" end="480" vehsPerHour="45.2946669959385"/>
  <flow id="JF80474" begin="420" fromJunction="J6" toJunction="J4" end="480" vehsPerHour="50.13621247177472"/>
  <flow id="JF80475" begin="420" fromJunction="J6" toJunction="J5" end="480" vehsPerHour="64.21294033464368"/>
  <flow id="JF80476" begin="420" fromJunction="J7" toJunction="J0" end="480" vehsPerHour="31.79069346392013"/>
  <flow id="JF80477" begin="480" fromJunction="J0" toJunction="J3" end="540" vehsPerHour="87.74202880293517"/>
  <flow id="JF80478" begin="480" fromJunction="J0" toJunction="J4" end="540" vehsPerHour="118.96661050073381"/>
  <flow id="JF80479" begin="480" fromJunction="J0" toJunction="J5" end="540" vehsPerHour="84.04440557235948"/>
  <flow id="JF80480" begin="480" fromJunction="J0" toJunction="J6" end="540" vehsPerHour="102.468967398473"/>
  <flow id="JF80481" begin="480" fromJunction="J3" toJunction="J0" end="540" vehsPerHour="90.97165433721709"/>
  <flow id="JF80482" begin="480" fromJunction="J3" toJunction="J5" end="540" vehsPerHour="78.28660472467274"/>
  <flow id="JF80483" begin="480" fromJunction="J3" toJunction="J7" end="540" vehsPerHour="79.48079886648662"/>
  <flow id="JF80484" begin="480" fromJunction="J4" toJunction="J0" end="540" vehsPerHour="2.20607671930019"/>
  <flow id="JF80485" begin="480" fromJunction="J4" toJunction="J3" end="540" vehsPerHour="9.73373286575578"/>
  <flow id="JF80486" begin="480" fromJunction="J4" toJunction="J5" end="540" vehsPerHour="35.37430502751058"/>
  <flow id="JF80487" begin="480" fromJunction="J4" toJunction="J7" end="540" vehsPerHour="61.49932585569849"/>
  <flow id="JF80488" begin="480" fromJunction="J5" toJunction="J0" end="540" vehsPerHour="24.173807031802788"/>
  <flow id="JF80489" begin="480" fromJunction="J5" toJunction="J6" end="540" vehsPerHour="57.16858294085558"/>
  <flow id="JF80490" begin="480" fromJunction="J6" toJunction="J0" end="540" vehsPerHour="30.22218726581072"/>
  <flow id="JF80491" begin="480" fromJunction="J6" toJunction="J4" end="540" vehsPerHour="19.039693890035934"/>
  <flow id="JF80492" begin="480" fromJunction="J6" toJunction="J5" end="540" vehsPerHour="4.026190362449891"/>
  <flow id="JF80493" begin="480" fromJunction="J7" toJunction="J0" end="540" vehsPerHour="4.992192555755982"/>
  <flow id="JF80494" begin="480" fromJunction="J7" toJunction="J4" end="540" vehsPerHour="32.66969279939634"/>
  <flow id="JF80495" begin="480" fromJunction="J7" toJunction="J6" end="540" vehsPerHour="13.837728272352077"/>
  <flow id="JF80496" begin="540" fromJunction="J0" toJunction="J4" end="600" vehsPerHour="68.78107606950711"/>
  <flow id="JF80497" begin="540" fromJunction="J0" toJunction="J7" end="600" vehsPerHour="34.5529597924686"/>
  <flow id="JF80498" begin="540" fromJunction="J3" toJunction="J0" end="600" vehsPerHour="73.9894063150242"/>
  <flow id="JF80499" begin="540" fromJunction="J3" toJunction="J4" end="600" vehsPerHour="123.95867265968623"/>
  <flow id="JF80500" begin="540" fromJunction="J3" toJunction="J6" end="600" vehsPerHour="58.99157363243966"/>
  <flow id="JF80501" begin="540" fromJunction="J4" toJunction="J0" end="600" vehsPerHour="37.21336667601643"/>
  <flow id="JF80502" begin="540" fromJunction="J4" toJunction="J5" end="600" vehsPerHour="66.16793818297619"/>
  <flow id="JF80503" begin="540" fromJunction="J5" toJunction="J0" end="600" vehsPerHour="57.347755341222594"/>
  <flow id="JF80504" begin="540" fromJunction="J5" toJunction="J3" end="600" vehsPerHour="42.33360837007982"/>
  <flow id="JF80505" begin="540" fromJunction="J5" toJunction="J4" end="600" vehsPerHour="18.383588146760953"/>
  <flow id="JF80506" begin="540" fromJunction="J5" toJunction="J6" end="600" vehsPerHour="31.207714947057795"/>
  <flow id="JF80507" begin="540" fromJunction="J5" toJunction="J7" end="600" vehsPerHour="11.085761483501216"/>
  <flow id="JF80508" begin="540" fromJunction="J6" toJunction="J3" end="600" vehsPerHour="54.441341348998904"/>
  <flow id="JF80509" begin="540" fromJunction="J6" toJunction="J4" end="600" vehsPerHour="13.627477947581513"/>
  <flow id="JF80510" begin="540" fromJunction="J7" toJunction="J0" end="600" vehsPerHour="0.36897857783860555"/>
  <flow id="JF80511" begin="540" fromJunction="J7" toJunction="J3" end="600" vehsPerHour="9.16750949469788"/>
  <flow id="JF80512" begin="540" fromJunction="J7" toJunction="J5" end="600" vehsPerHour="53.0817255264344"/>
  <flow id="JF80513" begin="600" fromJunction="J0" toJunction="J4" end="660" vehsPerHour="134.51305197608"/>
  <flow id="JF80514" begin="600" fromJunction="J0" toJunction="J5" end="660" vehsPerHour="8.23766226784943"/>
  <flow id="JF80515" begin="600" fromJunction="J0" toJunction="J6" end="660" vehsPerHour="103.46296589061332"/>
  <flow id="JF80516" begin="600" fromJunction="J0" toJunction="J7" end="660" vehsPerHour="71.12002920751794"/>
  <flow id="JF80517" begin="600" fromJunction="J3" toJunction="J4" end="660" vehsPerHour="2.008561462339264"/>
  <flow id="JF80518" begin="600" fromJunction="J3" toJunction="J5" end="660" vehsPerHour="20.752542019709814"/>
  <flow id="JF80519" begin="600" fromJunction="J3" toJunction="J6" end="660" vehsPerHour="29.769341189832648"/>
  <flow id="JF80520" begin="600" fromJunction="J3" toJunction="J7" end="660" vehsPerHour="126.69113603929438"/>
  <flow id="JF80521" begin="600" fromJunction="J4" toJunction="J5" end="660" vehsPerHour="38.37553646327834"/>
  <flow id="JF80522" begin="600" fromJunction="J4" toJunction="J6" end="660" vehsPerHour="60.55627918317488"/>
  <flow id="JF80523" begin="600" fromJunction="J4" toJunction="J7" end="660" vehsPerHour="51.11472397911811"/>
  <flow id="JF80524" begin="600" fromJunction="J5" toJunction="J4" end="660" vehsPerHour="51.033971082944475"/>
  <flow id="JF80525" begin="600" fromJunction="J5" toJunction="J6" end="660" vehsPerHour="28.16094056138807"/>
  <flow id="JF80526" begin="600" fromJunction="J5" toJunction="J7" end="660" vehsPerHour="57.06858806093641"/>
  <flow id="JF80527" begin="600" fromJunction="J6" toJunction="J0" end="660" vehsPerHour="43.443378209956336"/>
  <flow id="JF80528" begin="600" fromJunction="J6" toJunction="J4" end="660" vehsPerHour="58.87657015700428"/>
  <flow id="JF80529" begin="600" fromJunction="J6" toJunction="J5" end="660" vehsPerHour="63.47154975501661"/>
  <flow id="JF80530" begin="600" fromJunction="J6" toJunction="J7" end="660" vehsPerHour="57.431406455811924"/>
  <flow id="JF80531" begin="600" fromJunction="J7" toJunction="J0" end="660" vehsPerHour="20.88826558823273"/>
  <flow id="JF80532" begin="600" fromJunction="J7" toJunction="J3" end="660" vehsPerHour="31.26551865623204"/>
  <flow id="JF80533" begin="600" fromJunction="J7" toJunction="J5" end="660" vehsPerHour="21.776297824665864"/>
  <flow id="JF80534" begin="600" fromJunction="J7" toJunction="J6" end="660" vehsPerHour="14.888291086179272"/>
  <flow id="JF80535" begin="660" fromJunction="J0" toJunction="J3" end="720" vehsPerHour="85.4483603005398"/>
  <flow id="JF80536" begin="660" fromJunction="J0" toJunction="J4" end="720" vehsPerHour="95.86986507647347"/>
  <flow id="JF80537" begin="660" fromJunction="J0" toJunction="J6" end="720" vehsPerHour="79.53721129168026"/>
  <flow id="JF80538" begin="660" fromJunction="J0" toJunction="J7" end="720" vehsPerHour="50.4560121957037"/>
  <flow id="JF80539" begin="660" fromJunction="J3" toJunction="J0" end="720" vehsPerHour="71.70887491116773"/>
  <flow id="JF80540" begin="660" fromJunction="J3" toJunction="J4" end="720" vehsPerHour="62.60000692112296"/>
  <flow id="JF80541" begin="660" fromJunction="J3" toJunction="J5" end="720" vehsPerHour="22.356112654517865"/>
  <flow id="JF80542" begin="660" fromJunction="J3" toJunction="J6" end="720" vehsPerHour="7.0543542118442994"/>
  <flow id="JF80543" begin="660" fromJunction="J3" toJunction="J7" end="720" vehsPerHour="131.71762862945113"/>
  <flow id="JF80544" begin="660" fromJunction="J4" toJunction="J3" end="720" vehsPerHour="25.960401681084136"/>
  <flow id="JF80545" begin="660" fromJunction="J4" toJunction="J6" end="720" vehsPerHour="8.5505999425389"/>
  <flow id="JF80546" begin="660" fromJunction="J4" toJunction="J7" end="720" vehsPerHour="37.409806843539876"/>
  <flow id="JF80547" begin="660" fromJunction="J5" toJunction="J0" end="720" vehsPerHour="49.65643997940925"/>
  <flow id="JF80548" begin="660" fromJunction="J5" toJunction="J3" end="720" vehsPerHour="48.29344120421303"/>
  <flow id="JF80549" begin="660" fromJunction="J5" toJunction="J4" end="720" vehsPerHour="10.102668066366727"/>
  <flow id="JF80550" begin="660" fromJunction="J6" toJunction="J0" end="720" vehsPerHour="20.77142280669376"/>
  <flow id="JF80551" begin="660" fromJunction="J6" toJunction="J3" end="720" vehsPerHour="18.604974972039635"/>
  <flow id="JF80552" begin="660" fromJunction="J6" toJunction="J7" end="720" vehsPerHour="29.715144786352074"/>
  <flow id="JF80553" begin="660" fromJunction="J7" toJunction="J0" end="720" vehsPerHour="64.36068863781453"/>
  <flow id="JF80554" begin="660" fromJunction="J7" toJunction="J3" end="720" vehsPerHour="8.180769154654337"/>
  <flow id="JF80555" begin="660" fromJunction="J7" toJunction="J4" end="720" vehsPerHour="23.928197513220333"/>
  <flow id="JF80556" begin="660" fromJunction="J7" toJunction="J5" end="720" vehsPerHour="9.723414513148837"/>
  <flow id="JF80557" begin="660" fromJunction="J7" toJunction="J6" end="720" vehsPerHour="64.70831388468116"/>
  <flow id="JF80558" begin="720" fromJunction="J0" toJunction="J3" end="780" vehsPerHour="21.628162454875834"/>
  <flow id="JF80559" begin="720" fromJunction="J0" toJunction="J4" end="780" vehsPerHour="102.07764217484538"/>
  <flow id="JF80560" begin="720" fromJunction="J0" toJunction="J5" end="780" vehsPerHour="35.143061399007635"/>
  <flow id="JF80561" begin="720" fromJunction="J0" toJunction="J6" end="780" vehsPerHour="24.732443008605344"/>
  <flow id="JF80562" begin="720" fromJunction="J0" toJunction="J7" end="780" vehsPerHour="78.72221160695243"/>
  <flow id="JF80563" begin="720" fromJunction="J3" toJunction="J0" end="780" vehsPerHour="133.0654473531449"/>
  <flow id="JF80564" begin="720" fromJunction="J3" toJunction="J4" end="780" vehsPerHour="78.10535228888645"/>
  <flow id="JF80565" begin="720" fromJunction="J3" toJunction="J5" end="780" vehsPerHour="55.61363172788531"/>
  <flow id="JF80566" begin="720" fromJunction="J3" toJunction="J7" end="780" vehsPerHour="58.97048109229567"/>
  <flow id="JF80567" begin="720" fromJunction="J4" toJunction="J0" end="780" vehsPerHour="22.35965320067481"/>
  <flow id="JF80568" begin="720" fromJunction="J4" toJunction="J3" end="780" vehsPerHour="61.335096362514356"/>
  <flow id="JF80569" begin="720" fromJunction="J4" toJunction="J5" end="780" vehsPerHour="19.815968451919222"/>
  <flow id="JF80570" begin="720" fromJunction="J4" toJunction="J6" end="780" vehsPerHour="2.2042019126208414"/>
  <flow id="JF80571" begin="720" fromJunction="J5" toJunction="J0" end="780" vehsPerHour="55.13826037410183"/>
  <flow id="JF80572" begin="720" fromJunction="J5" toJunction="J3" end="780" vehsPerHour="11.716392927831604"/>
  <flow id="JF80573" begin="720" fromJunction="J5" toJunction="J4" end="780" vehsPerHour="56.25965777233875"/>
  <flow id="JF80574" begin="720" fromJunction="J5" toJunction="J6" end="780" vehsPerHour="49.91094485194411"/>
  <flow id="JF80575" begin="720" fromJunction="J6" toJunction="J3" end="780" vehsPerHour="7.76529163602648"/>