<?xml version="1.0" encoding="UTF-8"?>
<routes xmlns:xsi="http://www.w3.org/2001/XMLSchema-instance" xsi:noNamespaceSchemaLocation="http://sumo.dlr.de/xsd/routes_file.xsd">
  <flow id="JF83825" begin="0" fromJunction="J0" toJunction="J5" end="60" vehsPerHour="106.9501816909658"/>
  <flow id="JF83826" begin="0" fromJunction="J0" toJunction="J6" end="60" vehsPerHour="18.642683097079704"/>
  <flow id="JF83827" begin="0" fromJunction="J0" toJunction="J7" end="60" vehsPerHour="20.244612574420557"/>
  <flow id="JF83828" begin="0" fromJunction="J3" toJunction="J0" end="60" vehsPerHour="39.03423205337877"/>
  <flow id="JF83829" begin="0" fromJunction="J3" toJunction="J5" end="60" vehsPerHour="64.4771150917242"/>
  <flow id="JF83830" begin="0" fromJunction="J3" toJunction="J6" end="60" vehsPerHour="136.7027486233272"/>
  <flow id="JF83831" begin="0" fromJunction="J4" toJunction="J6" end="60" vehsPerHour="52.92852678430886"/>
  <flow id="JF83832" begin="0" fromJunction="J4" toJunction="J7" end="60" vehsPerHour="65.41122756244062"/>
  <flow id="JF83833" begin="0" fromJunction="J5" toJunction="J0" end="60" vehsPerHour="48.44067024758034"/>
  <flow id="JF83834" begin="0" fromJunction="J5" toJunction="J3" end="60" vehsPerHour="66.57941801217473"/>
  <flow id="JF83835" begin="0" fromJunction="J5" toJunction="J4" end="60" vehsPerHour="40.47002828684596"/>
  <flow id="JF83836" begin="0" fromJunction="J6" toJunction="J3" end="60" vehsPerHour="35.88971345587957"/>
  <flow id="JF83837" begin="0" fromJunction="J6" toJunction="J5" end="60" vehsPerHour="61.74064654514439"/>
  <flow id="JF83838" begin="0" fromJunction="J7" toJunction="J0" end="60" vehsPerHour="12.18910773262033"/>
  <flow id="JF83839" begin="0" fromJunction="J7" toJunction="J3" end="60" vehsPerHour="21.571973418923893"/>
  <flow id="JF83840" begin="0" fromJunction="J7" toJunction="J4" end="60" vehsPerHour="50.77576134573959"/>
  <flow id="JF83841" begin="0" fromJunction="J7" toJunction="J5" end="60" vehsPerHour="48.965693474002315"/>
  <flow id="JF83842" begin="0" fromJunction="J7" toJunction="J6" end="60" vehsPerHour="6.786400442182126"/>
  <flow id="JF83843" begin="60" fromJunction="J0" toJunction="J4" end="120" vehsPerHour="23.75957738589999"/>
  <flow id="JF83844" begin="60" fromJunction="J0" toJunction="J5" end="120" vehsPerHour="8.776304170239325"/>
  <flow id="JF83845" begin="60" fromJunction="J0" toJunction="J7" end="120" vehsPerHour="0.8156816433779589"/>
  <flow id="JF83846" begin="60" fromJunction="J3" toJunction="J0" end="120" vehsPerHour="19.752452281743768"/>
  <flow id="JF83847" begin="60" fromJunction="J3" toJunction="J4" end="120" vehsPerHour="37.3571372285514"/>
  <flow id="JF83848" begin="60" fromJunction="J3" toJunction="J5" end="120" vehsPerHour="107.85487950925915"/>
  <flow id="JF83849" begin="60" fromJunction="J4" toJunction="J0" end="120" vehsPerHour="31.37115125242734"/>
  <flow id="JF83850" begin="60" fromJunction="J4" toJunction="J3" end="120" vehsPerHour="51.33862250247635"/>
  <flow id="JF83851" begin="60" fromJunction="J4" toJunction="J5" end="120" vehsPerHour="1.8375690483856115"/>
  <flow id="JF83852" begin="60" fromJunction="J4" toJunction="J7" end="120" vehsPerHour="67.05855662279127"/>
  <flow id="JF83853" begin="60" fromJunction="J5" toJunction="J0" end="120" vehsPerHour="27.293862379151967"/>
  <flow id="JF83854" begin="60" fromJunction="J5" toJunction="J3" end="120" vehsPerHour="59.59682211001391"/>
  <flow id="JF83855" begin="60" fromJunction="J5" toJunction="J7" end="120" vehsPerHour="19.403443506805385"/>
  <flow id="JF83856" begin="60" fromJunction="J6" toJunction="J0" end="120" vehsPerHour="1.2732918680202874"/>
  <flow id="JF83857" begin="60" fromJunction="J6" toJunction="J3" end="120" vehsPerHour="1.3154809992010075"/>
  <flow id="JF83858" begin="60" fromJunction="J6" toJunction="J4" end="120" vehsPerHour="54.59989916989801"/>
  <flow id="JF83859" begin="60" fromJunction="J6" toJunction="J5" end="120" vehsPerHour="2.4740767622109456"/>
  <flow id="JF83860" begin="60" fromJunction="J7" toJunction="J0" end="120" vehsPerHour="3.229079448623778"/>
  <flow id="JF83861" begin="60" fromJunction="J7" toJunction="J5" end="120" vehsPerHour="51.964277667392444"/>
  <flow id="JF83862" begin="120" fromJunction="J0" toJunction="J3" end="180" vehsPerHour="104.6458134567693"/>
  <flow id="JF83863" begin="120" fromJunction="J0" toJunction="J4" end="180" vehsPerHour="21.238902773549963"/>
  <flow id="JF83864" begin="120" fromJunction="J0" toJunction="J7" end="180" vehsPerHour="126.32619523591727"/>
  <flow id="JF83865" begin="120" fromJunction="J3" toJunction="J5" end="180" vehsPerHour="123.97147880310582"/>
  <flow id="JF83866" begin="120" fromJunction="J3" toJunction="J6" end="180" vehsPerHour="36.27869000961932"/>
  <flow id="JF83867" begin="120" fromJunction="J4" toJunction="J0" end="180" vehsPerHour="47.0927942032432"/>
  <flow id="JF83868" begin="120" fromJunction="J4" toJunction="J6" end="180" vehsPerHour="37.44639647565506"/>
  <flow id="JF83869" begin="120" fromJunction="J5" toJunction="J0" end="180" vehsPerHour="36.0099506383335"/>
  <flow id="JF83870" begin="120" fromJunction="J5" toJunction="J3" end="180" vehsPerHour="43.72163143520397"/>
  <flow id="JF83871" begin="120" fromJunction="J5" toJunction="J6" end="180" vehsPerHour="12.37742145727563"/>
  <flow id="JF83872" begin="120" fromJunction="J5" toJunction="J7" end="180" vehsPerHour="43.026219919386726"/>
  <flow id="JF83873" begin="120" fromJunction="J6" toJunction="J0" end="180" vehsPerHour="39.23243186669832"/>
  <flow id="JF83874" begin="120" fromJunction="J6" toJunction="J3" end="180" vehsPerHour="6.377166074663757"/>
  <flow id="JF83875" begin="120" fromJunction="J6" toJunction="J4" end="180" vehsPerHour="42.10685827388399"/>
  <flow id="JF83876" begin="120" fromJunction="J7" toJunction="J0" end="180" vehsPerHour="11.024627125062578"/>
  <flow id="JF83877" begin="120" fromJunction="J7" toJunction="J3" end="180" vehsPerHour="9.279951783923869"/>
  <flow id="JF83878" begin="120" fromJunction="J7" toJunction="J4" end="180" vehsPerHour="39.48730298104805"/>
  <flow id="JF83879" begin="180" fromJunction="J0" toJunction="J3" end="240" vehsPerHour="103.67295372523466"/>
  <flow id="JF83880" begin="180" fromJunction="J0" toJunction="J4" end="240" vehsPerHour="135.84311295155013"/>
  <flow id="JF83881" begin="180" fromJunction="J0" toJunction="J5" end="240" vehsPerHour="20.923333778550035"/>
  <flow id="JF83882" begin="180" fromJunction="J0" toJunction="J6" end="240" vehsPerHour="68.50433878136987"/>
  <flow id="JF83883" begin="180" fromJunction="J0" toJunction="J7" end="240" vehsPerHour="103.37153330310416"/>
  <flow id="JF83884" begin="180" fromJunction="J3" toJunction="J4" end="240" vehsPerHour="42.79885683651119"/>
  <flow id="JF83885" begin="180" fromJunction="J3" toJunction="J5" end="240" vehsPerHour="1.1080745954685638"/>
  <flow id="JF83886" begin="180" fromJunction="J4" toJunction="J0" end="240" vehsPerHour="21.973801378369302"/>
  <flow id="JF83887" begin="180" fromJunction="J4" toJunction="J3" end="240" vehsPerHour="42.9549948834775"/>
  <flow id="JF83888" begin="180" fromJunction="J4" toJunction="J5" end="240" vehsPerHour="17.82533644312836"/>
  <flow id="JF83889" begin="180" fromJunction="J4" toJunction="J6" end="240" vehsPerHour="21.183420381659364"/>
  <flow id="JF83890" begin="180" fromJunction="J4" toJunction="J7" end="240" vehsPerHour="35.12492160350532"/>
  <flow id="JF83891" begin="180" fromJunction="J5" toJunction="J4" end="240" vehsPerHour="53.3247357127607"/>
  <flow id="JF83892" begin="180" fromJunction="J5" toJunction="J6" end="240" vehsPerHour="47.82759181875327"/>
  <flow id="JF83893" begin="180" fromJunction="J5" toJunction="J7" end="240" vehsPerHour="4.560753193582093"/>
  <flow id="JF83894" begin="180" fromJunction="J6" toJunction="J0" end="240" vehsPerHour="8.765730672300053"/>
  <flow id="JF83895" begin="180" fromJunction="J6" toJunction="J3" end="240" vehsPerHour="41.013393463323105"/>
  <flow id="JF83896" begin="180" fromJunction="J6" toJunction="J4" end="240" vehsPerHour="58.257551869648964"/>
  <flow id="JF83897" begin="180" fromJunction="J6" toJunction="J5" end="240" vehsPerHour="8.899072580736926"/>
  <flow id="JF83898" begin="180" fromJunction="J7" toJunction="J4" end="240" vehsPerHour="48.10661079425267"/>
  <flow id="JF83899" begin="180" fromJunction="J7" toJunction="J5" end="240" vehsPerHour="50.463262609312736"/>
  <flow id="JF83900" begin="240" fromJunction="J0" toJunction="J3" end="300" vehsPerHour="32.87046572833653"/>
  <flow id="JF83901" begin="240" fromJunction="J0" toJunction="J4" end="300" vehsPerHour="6.035795028151344"/>
  <flow id="JF83902" begin="240" fromJunction="J0" toJunction="J5" end="300" vehsPerHour="70.12182883289582"/>
  <flow id="JF83903" begin="240" fromJunction="J0" toJunction="J6" end="300" vehsPerHour="71.60703525207717"/>
  <flow id="JF83904" begin="240" fromJunction="J3" toJunction="J4" end="300" vehsPerHour="12.742614577855766"/>
  <flow id="JF83905" begin="240" fromJunction="J3" toJunction="J5" end="300" vehsPerHour="11.204224473033646"/>
  <flow id="JF83906" begin="240" fromJunction="J3" toJunction="J7" end="300" vehsPerHour="23.563568743986888"/>
  <flow id="JF83907" begin="240" fromJunction="J4" toJunction="J0" end="300" vehsPerHour="5.865108630666708"/>
  <flow id="JF83908" begin="240" fromJunction="J4" toJunction="J3" end="300" vehsPerHour="48.29789137088708"/>
  <flow id="JF83909" begin="240" fromJunction="J4" toJunction="J5" end="300" vehsPerHour="57.298808990238754"/>
  <flow id="JF83910" begin="240" fromJunction="J4" toJunction="J6" end="300" vehsPerHour="56.610000501922805"/>
  <flow id="JF83911" begin="240" fromJunction="J5" toJunction="J0" end="300" vehsPerHour="67.92179375752814"/>
  <flow id="JF83912" begin="240" fromJunction="J5" toJunction="J4" end="300" vehsPerHour="54.577633873526956"/>
  <flow id="JF83913" begin="240" fromJunction="J5" toJunction="J7" end="300" vehsPerHour="63.01935742297491"/>
  <flow id="JF83914" begin="240" fromJunction="J6" toJunction="J0" end="300" vehsPerHour="56.953271803001165"/>
  <flow id="JF83915" begin="240" fromJunction="J6" toJunction="J3" end="300" vehsPerHour="56.8884606529647"/>
  <flow id="JF83916" begin="240" fromJunction="J6" toJunction="J5" end="300" vehsPerHour="52.30949171824283"/>
  <flow id="JF83917" begin="240" fromJunction="J6" toJunction="J7" end="300" vehsPerHour="67.28298602654041"/>
  <flow id="JF83918" begin="240" fromJunction="J7" toJunction="J0" end="300" vehsPerHour="5.1810625504146035"/>
  <flow id="JF83919" begin="240" fromJunction="J7" toJunction="J3" end="300" vehsPerHour="45.091243187182904"/>
  <flow id="JF83920" begin="240" fromJunction="J7" toJunction="J6" end="300" vehsPerHour="9.483025170757577"/>
  <flow id="JF83921" begin="300" fromJunction="J0" toJunction="J4" end="360" vehsPerHour="80.65079674358545"/>
  <flow id="JF83922" begin="300" fromJunction="J0" toJunction="J5" end="360" vehsPerHour="99.69714910283743"/>
  <flow id="JF83923" begin="300" fromJunction="J0" toJunction="J6" end="360" vehsPerHour="64.47986965142019"/>
  <flow id="JF83924" begin="300" fromJunction="J0" toJunction="J7" end="360" vehsPerHour="17.6703121521173"/>
  <flow id="JF83925" begin="300" fromJunction="J3" toJunction="J0" end="360" vehsPerHour="111.99372632595791"/>
  <flow id="JF83926" begin="300" fromJunction="J3" toJunction="J6" end="360" vehsPerHour="75.4309730993588"/>
  <flow id="JF83927" begin="300" fromJunction="J3" toJunction="J7" end="360" vehsPerHour="78.10233963526565"/>
  <flow id="JF83928" begin="300" fromJunction="J4" toJunction="J3" end="360" vehsPerHour="63.089687322202955"/>
  <flow id="JF83929" begin="300" fromJunction="J4" toJunction="J5" end="360" vehsPerHour="57.423443273654506"/>
  <flow id="JF83930" begin="300" fromJunction="J4" toJunction="J6" end="360" vehsPerHour="49.36427984609195"/>
  <flow id="JF83931" begin="300" fromJunction="J5" toJunction="J0" end="360" vehsPerHour="46.70664074518167"/>
  <flow id="JF83932" begin="300" fromJunction="J5" toJunction="J3" end="360" vehsPerHour="53.259986607463496"/>
  <flow id="JF83933" begin="300" fromJunction="J5" toJunction="J4" end="360" vehsPerHour="54.54589324390983"/>
  <flow id="JF83934" begin="300" fromJunction="J6" toJunction="J5" end="360" vehsPerHour="29.02169336120744"/>
  <flow id="JF83935" begin="300" fromJunction="J6" toJunction="J7" end="360" vehsPerHour="45.97776047377178"/>
  <flow id="JF83936" begin="300" fromJunction="J7" toJunction="J0" end="360" vehsPerHour="40.835920162016556"/>
  <flow id="JF83937" begin="300" fromJunction="J7" toJunction="J5" end="360" vehsPerHour="15.80573474468802"/>
  <flow id="JF83938" begin="360" fromJunction="J0" toJunction="J5" end="420" vehsPerHour="127.26088884387894"/>
  <flow id="JF83939" begin="360" fromJunction="J3" toJunction="J0" end="420" vehsPerHour="28.870222459390753"/>
  <flow id="JF83940" begin="360" fromJunction="J3" toJunction="J7" end="420" vehsPerHour="116.43260301836924"/>
  <flow id="JF83941" begin="360" fromJunction="J4" toJunction="J0" end="420" vehsPerHour="29.577963055142746"/>
  <flow id="JF83942" begin="360" fromJunction="J4" toJunction="J6" end="420" vehsPerHour="19.717396476582"/>
  <flow id="JF83943" begin="360" fromJunction="J4" toJunction="J7" end="420" vehsPerHour="52.706937125702495"/>
  <flow id="JF83944" begin="360" fromJunction="J5" toJunction="J6" end="420" vehsPerHour="32.75403183319196"/>
  <flow id="JF83945" begin="360" fromJunction="J5" toJunction="J7" end="420" vehsPerHour="43.23559674790266"/>
  <flow id="JF83946" begin="360" fromJunction="J6" toJunction="J3" end="420" vehsPerHour="58.76520007325077"/>
  <flow id="JF83947" begin="360" fromJunction="J6" toJunction="J4" end="420" vehsPerHour="3.7507411634612993"/>
  <flow id="JF83948" begin="360" fromJunction="J7" toJunction="J0" end="420" vehsPerHour="57.2416464357551"/>
  <flow id="JF83949" begin="360" fromJunction="J7" toJunction="J4" end="420" vehsPerHour="17.412979877891253"/>
  <flow id="JF83950" begin="360" fromJunction="J7" toJunction="J5" end="420" vehsPerHour="25.6231289431313"/>
  <flow id="JF83951" begin="360" fromJunction="J7" toJunction="J6" end="420" vehsPerHour="37.252339228015316"/>
  <flow id="JF83952" begin="420" fromJunction="J0" toJunction="J3" end="480" vehsPerHour="3.810051242909764"/>
  <flow id="JF83953" begin="420" fromJunction="J0" toJunction="J4" end="480" vehsPerHour="9.590121004527534"/>
  <flow id="JF83954" begin="420" fromJunction="J0" toJunction="J5" end="480" vehsPerHour="104.03300023397033"/>
  <flow id="JF83955" begin="420" fromJunction="J3" toJunction="J0" end="480" vehsPerHour="10.17547687279439"/>
  <flow id="JF83956" begin="420" fromJunction="J3" toJunction="J4" end="480" vehsPerHour="67.67333780967597"/>
  <flow id="JF83957" begin="420" fromJunction="J3" toJunction="J5" end="480" vehsPerHour="108.12253633280635"/>
  <flow id="JF83958" begin="420" fromJunction="J3" toJunction="J6" end="480" vehsPerHour="54.69797671343351"/>
  <flow id="JF83959" begin="420" fromJunction="J4" toJunction="J0" end="480" vehsPerHour="30.530327645575323"/>
  <flow id="JF83960" begin="420" fromJunction="J4" toJunction="J5" end="480" vehsPerHour="24.350045704531617"/>
  <flow id="JF83961" begin="420" fromJunction="J4" toJunction="J7" end="480" vehsPerHour="57.78880054517436"/>
  <flow id="JF83962" begin="420" fromJunction="J5" toJunction="J0" end="480" vehsPerHour="41.723160945774"/>
  <flow id="JF83963" begin="420" fromJunction="J5" toJunction="J3" end="480" vehsPerHour="31.973000827118035"/>
  <flow id="JF83964" begin="420" fromJunction="J5" toJunction="J4" end="480" vehsPerHour="8.549167994912109"/>
  <flow id="JF83965" begin="420" fromJunction="J5" toJunction="J6" end="480" vehsPerHour="5.385570783019845"/>
  <flow id="JF83966" begin="420" fromJunction="J5" toJunction="J7" end="480" vehsPerHour="45.911685687966155"/>
  <flow id="JF83967" begin="420" fromJunction="J6" toJunction="J0" end="480" vehsPerHour="7.318872594975599"/>
  <flow id="JF83968" begin="420" fromJunction="J6" toJunction="J3" end="480" vehsPerHour="50.05099473032261"/>
  <flow id="JF83969" begin="420" fromJunction="J6" toJunction="J4" end="480" vehsPerHour="45.88256007054561"/>
  <flow id="JF83970" begin="420" fromJunction="J6" toJunction="J7" end="480" vehsPerHour="40.98174260307416"/>
  <flow id="JF83971" begin="420" fromJunction="J7" toJunction="J0" end="480" vehsPerHour="20.40234534586027"/>
  <flow id="JF83972" begin="420" fromJunction="J7" toJunction="J3" end="480" vehsPerHour="5.961260489578987"/>
  <flow id="JF83973" begin="420" fromJunction="J7" toJunction="J4" end="480" vehsPerHour="48.50676908210174"/>
  <flow id="JF83974" begin="420" fromJunction="J7" toJunction="J5" end="480" vehsPerHour="26.750582678182244"/>
  <flow id="JF83975" begin="420" fromJunction="J7" toJunction="J6" end="480" vehsPerHour="42.85586516390789"/>
  <flow id="JF83976" begin="480" fromJunction="J0" toJunction="J3" end="540" vehsPerHour="93.39099875315341"/>
  <flow id="JF83977" begin="480" fromJunction="J0" toJunction="J4" end="540" vehsPerHour="74.30565318194792"/>
  <flow id="JF83978" begin="480" fromJunction="J0" toJunction="J5" end="540" vehsPerHour="47.4180467068607"/>
  <flow id="JF83979" begin="480" fromJunction="J0" toJunction="J6" end="540" vehsPerHour="60.091081825715946"/>
  <flow id="JF83980" begin="480" fromJunction="J0" toJunction="J7" end="540" vehsPerHour="132.16292708429492"/>
  <flow id="JF83981" begin="480" fromJunction="J3" toJunction="J0" end="540" vehsPerHour="124.18551084750472"/>
  <flow id="JF83982" begin="480" fromJunction="J3" toJunction="J4" end="540" vehsPerHour="107.24720047494428"/>
  <flow id="JF83983" begin="480" fromJunction="J3" toJunction="J5" end="540" vehsPerHour="109.7665204588771"/>
  <flow id="JF83984" begin="480" fromJunction="J3" toJunction="J6" end="540" vehsPerHour="103.41656368304756"/>
  <flow id="JF83985" begin="480" fromJunction="J3" toJunction="J7" end="540" vehsPerHour="56.954115686979435"/>
  <flow id="JF83986" begin="480" fromJunction="J4" toJunction="J3" end="540" vehsPerHour="31.012039779416913"/>
  <flow id="JF83987" begin="480" fromJunction="J4" toJunction="J5" end="540" vehsPerHour="22.966711700981403"/>
  <flow id="JF83988" begin="480" fromJunction="J4" toJunction="J6" end="540" vehsPerHour="45.61670118946811"/>
  <flow id="JF83989" begin="480" fromJunction="J4" toJunction="J7" end="540" vehsPerHour="16.226696174967596"/>
  <flow id="JF83990" begin="480" fromJunction="J5" toJunction="J0" end="540" vehsPerHour="13.721977425577315"/>
  <flow id="JF83991" begin="480" fromJunction="J5" toJunction="J3" end="540" vehsPerHour="23.752588513813784"/>
  <flow id="JF83992" begin="480" fromJunction="J5" toJunction="J4" end="540" vehsPerHour="1.7863873249084032"/>
  <flow id="JF83993" begin="480" fromJunction="J5" toJunction="J6" end="540" vehsPerHour="66.43222309790679"/>
  <flow id="JF83994" begin="480" fromJunction="J5" toJunction="J7" end="540" vehsPerHour="62.86614776980617"/>
  <flow id="JF83995" begin="480" fromJunction="J6" toJunction="J3" end="540" vehsPerHour="58.35964685708072"/>
  <flow id="JF83996" begin="480" fromJunction="J6" toJunction="J5" end="540" vehsPerHour="20.0435813691388"/>
  <flow id="JF83997" begin="480" fromJunction="J6" toJunction="J7" end="540" vehsPerHour="16.999623793968833"/>
  <flow id="JF83998" begin="480" fromJunction="J7" toJunction="J0" end="540" vehsPerHour="64.75323619674568"/>
  <flow id="JF83999" begin="480" fromJunction="J7" toJunction="J4" end="540" vehsPerHour="56.67361599069635"/>
  <flow id="JF84000" begin="480" fromJunction="J7" toJunction="J5" end="540" vehsPerHour="68.26944778367793"/>
  <flow id="JF84001" begin="480" fromJunction="J7" toJunction="J6" end="540" vehsPerHour="34.846100463257805"/>
  <flow id="JF84002" begin="540" fromJunction="J0" toJunction="J4" end="600" vehsPerHour="106.72250395042005"/>
  <flow id="JF84003" begin="540" fromJunction="J0" toJunction="J6" end="600" vehsPerHour="111.50565873969967"/>
  <flow id="JF84004" begin="540" fromJunction="J0" toJunction="J7" end="600" vehsPerHour="81.15290325111566"/>
  <flow id="JF84005" begin="540" fromJunction="J3" toJunction="J5" end="600" vehsPerHour="93.38770947957033"/>
  <flow id="JF84006" begin="540" fromJunction="J3" toJunction="J6" end="600" vehsPerHour="32.55937746462974"/>
  <flow id="JF84007" begin="540" fromJunction="J3" toJunction="J7" end="600" vehsPerHour="2.7620500165832524"/>
  <flow id="JF84008" begin="540" fromJunction="J4" toJunction="J6" end="600" vehsPerHour="39.630457376010355"/>
  <flow id="JF84009" begin="540" fromJunction="J4" toJunction="J7" end="600" vehsPerHour="39.81410484730452"/>
  <flow id="JF84010" begin="540" fromJunction="J5" toJunction="J3" end="600" vehsPerHour="39.025022437408225"/>
  <flow id="JF84011" begin="540" fromJunction="J5" toJunction="J7" end="600" vehsPerHour="2.596310534765294"/>
  <flow id="JF84012" begin="540" fromJunction="J6" toJunction="J3" end="600" vehsPerHour="4.928421804958748"/>
  <flow id="JF84013" begin="540" fromJunction="J6" toJunction="J4" end="600" vehsPerHour="28.747547117461522"/>
  <flow id="JF84014" begin="540" fromJunction="J6" toJunction="J5" end="600" vehsPerHour="20.792438405747852"/>
  <flow id="JF84015" begin="540" fromJunction="J7" toJunction="J0" end="600" vehsPerHour="44.888768711738344"/>
  <flow id="JF84016" begin="540" fromJunction="J7" toJunction="J3" end="600" vehsPerHour="39.5138331598016"/>
  <flow id="JF84017" begin="540" fromJunction="J7" toJunction="J4" end="600" vehsPerHour="61.677806111538985"/>
  <flow id="JF84018" begin="540" fromJunction="J7" toJunction="J5" end="600" vehsPerHour="37.55512334753359"/>
  <flow id="JF84019" begin="540" fromJunction="J7" toJunction="J6" end="600" vehsPerHour="43.311042707925"/>
  <flow id="JF84020" begin="600" fromJunction="J0" toJunction="J3" end="660" vehsPerHour="28.4438905480376"/>
  <flow id="JF84021" begin="600" fromJunction="J0" toJunction="J4" end="660" vehsPerHour="73.99751256695359"/>
  <flow id="JF84022" begin="600" fromJunction="J0" toJunction="J5" end="660" vehsPerHour="95.50058913218739"/>
  <flow id="JF84023" begin="600" fromJunction="J0" toJunction="J7" end="660" vehsPerHour="9.319145894086725"/>
  <flow id="JF84024" begin="600" fromJunction="J3" toJunction="J0" end="660" vehsPerHour="132.98615549098218"/>
  <flow id="JF84025" begin="600" fromJunction="J3" toJunction="J4" end="660" vehsPerHour="111.72832568789342"/>
  <flow id="JF84026" begin="600" fromJunction="J3" toJunction="J5" end="660" vehsPerHour="61.60342432576999"/>
  <flow id="JF84027" begin="600" fromJunction="J3" toJunction="J6" end="660" vehsPerHour="91.40268647525933"/>
  <flow id="JF84028" begin="600" fromJunction="J3" toJunction="J7" end="660" vehsPerHour="52.913034338308584"/>
  <flow id="JF84029" begin="600" fromJunction="J4" toJunction="J3" end="660" vehsPerHour="59.87940084799982"/>
  <flow id="JF84030" begin="600" fromJunction="J4" toJunction="J5" end="660" vehsPerHour="57.52389751959224"/>
  <flow id="JF84031" begin="600" fromJunction="J4" toJunction="J6" end="660" vehsPerHour="24.72390771118412"/>
  <flow id="JF84032" begin="600" fromJunction="J4" toJunction="J7" end="660" vehsPerHour="15.455041297161422"/>
  <flow id="JF84033" begin="600" fromJunction="J5" toJunction="J0" end="660" vehsPerHour="53.59058742256126"/>
  <flow id="JF84034" begin="600" fromJunction="J5" toJunction="J3" end="660" vehsPerHour="56.87196058637474"/>
  <flow id="JF84035" begin="600" fromJunction="J6" toJunction="J0" end="660" vehsPerHour="30.84576722843683"/>
  <flow id="JF84036" begin="600" fromJunction="J6" toJunction="J5" end="660" vehsPerHour="3.3158365108092895"/>
  <flow id="JF84037" begin="600" fromJunction="J6" toJunction="J7" end="660" vehsPerHour="41.244034869605294"/>
  <flow id="JF84038" begin="600" fromJunction="J7" toJunction="J3" end="660" vehsPerHour="7.0786128687684045"/>
  <flow id="JF84039" begin="600" fromJunction="J7" toJunction="J4" end="660" vehsPerHour="48.99530694945247"/>
  <flow id="JF84040" begin="600" fromJunction="J7" toJunction="J5" end="660" vehsPerHour="51.81627000973627"/>
  <flow id="JF84041" begin="600" fromJunction="J7" toJunction="J6" end="660" vehsPerHour="32.52559802194504"/>
  <flow id="JF84042" begin="660" fromJunction="J0" toJunction="J3" end="720" vehsPerHour="67.9337199906977"/>
  <flow id="JF84043" begin="660" fromJunction="J0" toJunction="J6" end="720" vehsPerHour="88.33205775444276"/>
  <flow id="JF84044" begin="660" fromJunction="J0" toJunction="J7" end="720" vehsPerHour="126.0922574211082"/>
  <flow id="JF84045" begin="660" fromJunction="J3" toJunction="J0" end="720" vehsPerHour="59.38210083232526"/>
  <flow id="JF84046" begin="660" fromJunction="J3" toJunction="J4" end="720" vehsPerHour="7.714913757064895"/>
  <flow id="JF84047" begin="660" fromJunction="J3" toJunction="J5" end="720" vehsPerHour="48.78258194608561"/>
  <flow id="JF84048" begin="660" fromJunction="J3" toJunction="J6" end="720" vehsPerHour="89.8337869324732"/>
  <flow id="JF84049" begin="660" fromJunction="J3" toJunction="J7" end="720" vehsPerHour="57.11289534682886"/>
  <flow id="JF84050" begin="660" fromJunction="J4" toJunction="J0" end="720" vehsPerHour="56.753501772299764"/>
  <flow id="JF84051" begin="660" fromJunction="J4" toJunction="J5" end="720" vehsPerHour="31.370891879681626"/>
  <flow id="JF84052" begin="660" fromJunction="J4" toJunction="J7" end="720" vehsPerHour="4.8190107167052085"/>
  <flow id="JF84053" begin="660" fromJunction="J5" toJunction="J3" end="720" vehsPerHour="47.68764770551777"/>
  <flow id="JF84054" begin="660" fromJunction="J5" toJunction="J6" end="720" vehsPerHour="43.85848263684451"/>
  <flow id="JF84055" begin="660" fromJunction="J5" toJunction="J7" end="720" vehsPerHour="32.09984834579608"/>
  <flow id="JF84056" begin="660" fromJunction="J6" toJunction="J0" end="720" vehsPerHour="41.034333679341"/>
  <flow id="JF84057" begin="660" fromJunction="J6" toJunction="J4" end="720" vehsPerHour="44.806051731409006"/>
  <flow id="JF84058" begin="660" fromJunction="J7" toJunction="J0" end="720" vehsPerHour="13.597655997130714"/>
  <flow id="JF84059" begin="660" fromJunction="J7" toJunction="J3" end="720" vehsPerHour="31.569228869021437"/>
  <flow id="JF84060" begin="660" fromJunction="J7" toJunction="J4" end="720" vehsPerHour="64.1558465060629"/>
  <flow id="JF84061" begin="660" fromJunction="J7" toJunction="J6" end="720" vehsPerHour="40.79187027151883"/>
  <flow id="JF84062" begin="720" fromJunction="J0" toJunction="J5" end="780" vehsPerHour="101.89371923381536"/>
  <flow id="JF84063" begin="720" fromJunction="J0" toJunction="J6" end="780" vehsPerHour="115.20277934245425"/>
  <flow id="JF84064" begin="720" fromJunction="J3" toJunction="J4" end="780" vehsPerHour="96.43745501277165"/>
  <flow id="JF84065" begin="720" fromJunction="J3" toJunction="J6" end="780" vehsPerHour="77.66814594882398"/>
  <flow id="JF84066" begin="720" fromJunction="J3" toJunction="J7" end="780" vehsPerHour="61.42113431754166"/>
  <flow id="JF84067" begin="720" fromJunction="J4" toJunction="J5" end="780" vehsPerHour="10.150114097312049"/>
  <flow id="JF84068" begin="720" fromJunction="J4" toJunction="J6" end="780" vehsPerHour="22.15467924513771"/>
  <flow id="JF84069" begin="720" fromJunction="J4" toJunction="J7" end="780" vehsPerHour="28.256070652296774"/>
  <flow id="JF84070" begin="720" fromJunction="J5" toJunction="J3" end="780" vehsPerHour="11.148033028033836"/>
  <flow id="JF84071" begin="720" fromJunction="J5" toJunction="J4" end="780" vehsPerHour="67.12195209498681"/>
  <flow id="JF84072" begin="720" fromJunction="J5" toJunction="J7" end="780" vehsPerHour="29.65154425141504"/>
  <flow id="JF84073" begin="720" fromJunction="J6" toJunction="J0" end="780" vehsPerHour="57.796196333307016"/>
  <flow id="JF84074" begin="720" fromJunction="J6" toJunction="J3" end="780" vehsPerHour="6.086585763164275"/>
  <flow id="JF84075" begin="720" fromJunction="J6" toJunction="J4" end="780" vehsPerHour="57.671756357801755"/>
  <flow id="JF84076" begin="720" fromJunction="J6" toJunction="J5" end="780" vehsPerHour="50.93682810065746"/>
  <flow id="JF84077" begin="720" fromJunction="J6" toJunction="J7" end="780" vehsPerHour="51.88244548178961"/>
  <flow id="JF84078" begin="720" fromJunction="J7" toJunction="J3" end="780" vehsPerHour="64.81403914031992"/>
  <flow id="JF84079" begin="720" fromJunction="J7" toJunction="J4" end="780" vehsPerHour="64.1803798687457"/>
  <flow id="JF84080" begin="720" fromJunction="J7" toJunction="J5" end="780" vehsPerHour="57.51044009045374"/>
  <flow id="JF84081" begin="780" fromJunction="J0" toJunction="J3" end="840" vehsPerHour="26.29825548151342"/>
  <flow id="JF84082" begin="780" fromJunction="J0" toJunction="J4" end="840" vehsPerHour="102.9306829029421"/>
  <flow id="JF84083" begin="780" fromJunction="J0" toJunction="J5" end="840" vehsPerHour="16.98566975394119"/>
  <flow id="JF84084" begin="780" fromJunction="J0" toJunction="J6" end="840" vehsPerHour="76.6506420788363"/>
  <flow id="JF84085" begin="780" fromJunction="J0" toJunction="J7" end="840" vehsPerHour="22.438712730211492"/>
  <flow id="JF84086" begin="780" fromJunction="J3" toJunction="J0" end="840" vehsPerHour="112.81537961116516"/>
  <flow id="JF84087" begin="780" fromJunction="J3" toJunction="J5" end="840" vehsPerHour="64.56632367775342"/>
  <flow id="JF84088" begin="780" fromJunction="J3" toJunction="J7" end="840" vehsPerHour="91.73736935068105"/>
  <flow id="JF84089" begin="780" fromJunction="J4" toJunction="J0" end="840" vehsPerHour="57.37306929256746"/>
  <flow id="JF84090" begin="780" fromJunction="J4" toJunction="J3" end="840" vehsPerHour="52.63044341654433"/>
  <flow id="JF84091" begin="780" fromJunction="J4" toJunction="J5" end="840" vehsPerHour="31.309011221042635"/>
  <flow id="JF84092" begin="780" fromJunction="J5" toJunction="J0" end="840" vehsPerHour="40.738406563079614"/>