<?xml version="1.0" encoding="UTF-8"?>
<routes xmlns:xsi="http://www.w3.org/2001/XMLSchema-instance" xsi:noNamespaceSchemaLocation="http://sumo.dlr.de/xsd/routes_file.xsd">
  <flow id="JF85537" begin="0" fromJunction="J0" toJunction="J3" end="60" vehsPerHour="16.512112343020146"/>
  <flow id="JF85538" begin="0" fromJunction="J0" toJunction="J4" end="60" vehsPerHour="99.57870850035455"/>
  <flow id="JF85539" begin="0" fromJunction="J3" toJunction="J4" end="60" vehsPerHour="120.08033581904836"/>
  <flow id="JF85540" begin="0" fromJunction="J3" toJunction="J5" end="60" vehsPerHour="73.82036633894451"/>
  <flow id="JF85541" begin="0" fromJunction="J3" toJunction="J7" end="60" vehsPerHour="13.072007317742285"/>
  <flow id="JF85542" begin="0" fromJunction="J4" toJunction="J0" end="60" vehsPerHour="4.211965617536973"/>
  <flow id="JF85543" begin="0" fromJunction="J4" toJunction="J6" end="60" vehsPerHour="67.45382717652014"/>
  <flow id="JF85544" begin="0" fromJunction="J4" toJunction="J7" end="60" vehsPerHour="26.97899255263173"/>
  <flow id="JF85545" begin="0" fromJunction="J5" toJunction="J3" end="60" vehsPerHour="51.263840943501165"/>
  <flow id="JF85546" begin="0" fromJunction="J5" toJunction="J7" end="60" vehsPerHour="2.1430281636604622"/>
  <flow id="JF85547" begin="0" fromJunction="J6" toJunction="J0" end="60" vehsPerHour="51.95868804812654"/>
  <flow id="JF85548" begin="0" fromJunction="J6" toJunction="J3" end="60" vehsPerHour="57.27675523976112"/>
  <flow id="JF85549" begin="0" fromJunction="J6" toJunction="J5" end="60" vehsPerHour="65.40161162262186"/>
  <flow id="JF85550" begin="0" fromJunction="J6" toJunction="J7" end="60" vehsPerHour="60.801310635311694"/>
  <flow id="JF85551" begin="0" fromJunction="J7" toJunction="J0" end="60" vehsPerHour="63.58428336283824"/>
  <flow id="JF85552" begin="0" fromJunction="J7" toJunction="J3" end="60" vehsPerHour="13.204186686223006"/>
  <flow id="JF85553" begin="0" fromJunction="J7" toJunction="J4" end="60" vehsPerHour="22.417168424526494"/>
  <flow id="JF85554" begin="0" fromJunction="J7" toJunction="J5" end="60" vehsPerHour="33.11170943442594"/>
  <flow id="JF85555" begin="0" fromJunction="J7" toJunction="J6" end="60" vehsPerHour="12.82567656927774"/>
  <flow id="JF85556" begin="60" fromJunction="J0" toJunction="J3" end="120" vehsPerHour="133.2445409785193"/>
  <flow id="JF85557" begin="60" fromJunction="J0" toJunction="J4" end="120" vehsPerHour="120.92326657094141"/>
  <flow id="JF85558" begin="60" fromJunction="J0" toJunction="J5" end="120" vehsPerHour="115.86596171962296"/>
  <flow id="JF85559" begin="60" fromJunction="J0" toJunction="J6" end="120" vehsPerHour="42.667728495056465"/>
  <flow id="JF85560" begin="60" fromJunction="J0" toJunction="J7" end="120" vehsPerHour="69.8707354055898"/>
  <flow id="JF85561" begin="60" fromJunction="J3" toJunction="J0" end="120" vehsPerHour="72.25018329232303"/>
  <flow id="JF85562" begin="60" fromJunction="J3" toJunction="J4" end="120" vehsPerHour="100.86075658683265"/>
  <flow id="JF85563" begin="60" fromJunction="J3" toJunction="J5" end="120" vehsPerHour="80.00250887723082"/>
  <flow id="JF85564" begin="60" fromJunction="J3" toJunction="J7" end="120" vehsPerHour="101.19765378187567"/>
  <flow id="JF85565" begin="60" fromJunction="J4" toJunction="J0" end="120" vehsPerHour="67.69499654370605"/>
  <flow id="JF85566" begin="60" fromJunction="J4" toJunction="J3" end="120" vehsPerHour="51.533384209971366"/>
  <flow id="JF85567" begin="60" fromJunction="J4" toJunction="J6" end="120" vehsPerHour="32.85178326436423"/>
  <flow id="JF85568" begin="60" fromJunction="J5" toJunction="J0" end="120" vehsPerHour="21.99507677387293"/>
  <flow id="JF85569" begin="60" fromJunction="J5" toJunction="J4" end="120" vehsPerHour="45.47799416708028"/>
  <flow id="JF85570" begin="60" fromJunction="J5" toJunction="J7" end="120" vehsPerHour="35.06765366444434"/>
  <flow id="JF85571" begin="60" fromJunction="J6" toJunction="J0" end="120" vehsPerHour="30.129609134173922"/>
  <flow id="JF85572" begin="60" fromJunction="J6" toJunction="J3" end="120" vehsPerHour="23.478664036952043"/>
  <flow id="JF85573" begin="60" fromJunction="J6" toJunction="J4" end="120" vehsPerHour="22.83868458084199"/>
  <flow id="JF85574" begin="60" fromJunction="J6" toJunction="J5" end="120" vehsPerHour="66.03657185379761"/>
  <flow id="JF85575" begin="60" fromJunction="J7" toJunction="J3" end="120" vehsPerHour="3.7997318552495067"/>
  <flow id="JF85576" begin="60" fromJunction="J7" toJunction="J4" end="120" vehsPerHour="19.15956406283708"/>
  <flow id="JF85577" begin="120" fromJunction="J0" toJunction="J5" end="180" vehsPerHour="55.843778323146516"/>
  <flow id="JF85578" begin="120" fromJunction="J0" toJunction="J6" end="180" vehsPerHour="134.74631175827432"/>
  <flow id="JF85579" begin="120" fromJunction="J3" toJunction="J4" end="180" vehsPerHour="131.02854795011976"/>
  <flow id="JF85580" begin="120" fromJunction="J3" toJunction="J5" end="180" vehsPerHour="0.024834091433677187"/>
  <flow id="JF85581" begin="120" fromJunction="J3" toJunction="J7" end="180" vehsPerHour="4.207104893070253"/>
  <flow id="JF85582" begin="120" fromJunction="J4" toJunction="J3" end="180" vehsPerHour="46.01529050398838"/>
  <flow id="JF85583" begin="120" fromJunction="J4" toJunction="J5" end="180" vehsPerHour="19.720000149692346"/>
  <flow id="JF85584" begin="120" fromJunction="J4" toJunction="J6" end="180" vehsPerHour="55.98164549375473"/>
  <flow id="JF85585" begin="120" fromJunction="J4" toJunction="J7" end="180" vehsPerHour="10.488449449453835"/>
  <flow id="JF85586" begin="120" fromJunction="J5" toJunction="J0" end="180" vehsPerHour="37.989045802662076"/>
  <flow id="JF85587" begin="120" fromJunction="J6" toJunction="J0" end="180" vehsPerHour="22.792429179153807"/>
  <flow id="JF85588" begin="120" fromJunction="J6" toJunction="J3" end="180" vehsPerHour="66.88052291410827"/>
  <flow id="JF85589" begin="120" fromJunction="J6" toJunction="J4" end="180" vehsPerHour="33.647603591036045"/>
  <flow id="JF85590" begin="120" fromJunction="J6" toJunction="J5" end="180" vehsPerHour="29.235298011626487"/>
  <flow id="JF85591" begin="120" fromJunction="J6" toJunction="J7" end="180" vehsPerHour="36.10168859830244"/>
  <flow id="JF85592" begin="120" fromJunction="J7" toJunction="J0" end="180" vehsPerHour="22.608279872574517"/>
  <flow id="JF85593" begin="120" fromJunction="J7" toJunction="J3" end="180" vehsPerHour="33.1706421193639"/>
  <flow id="JF85594" begin="120" fromJunction="J7" toJunction="J4" end="180" vehsPerHour="42.29182934470855"/>
  <flow id="JF85595" begin="120" fromJunction="J7" toJunction="J5" end="180" vehsPerHour="41.248262471585534"/>
  <flow id="JF85596" begin="120" fromJunction="J7" toJunction="J6" end="180" vehsPerHour="48.45332488636874"/>
  <flow id="JF85597" begin="180" fromJunction="J0" toJunction="J4" end="240" vehsPerHour="18.936732066086368"/>
  <flow id="JF85598" begin="180" fromJunction="J0" toJunction="J5" end="240" vehsPerHour="69.37685194749439"/>
  <flow id="JF85599" begin="180" fromJunction="J0" toJunction="J6" end="240" vehsPerHour="59.98222396785143"/>
  <flow id="JF85600" begin="180" fromJunction="J0" toJunction="J7" end="240" vehsPerHour="25.53285334980542"/>
  <flow id="JF85601" begin="180" fromJunction="J3" toJunction="J0" end="240" vehsPerHour="30.919601318826047"/>
  <flow id="JF85602" begin="180" fromJunction="J3" toJunction="J4" end="240" vehsPerHour="16.240012081470628"/>
  <flow id="JF85603" begin="180" fromJunction="J3" toJunction="J6" end="240" vehsPerHour="5.752516188683633"/>
  <flow id="JF85604" begin="180" fromJunction="J3" toJunction="J7" end="240" vehsPerHour="119.68998611171867"/>
  <flow id="JF85605" begin="180" fromJunction="J4" toJunction="J3" end="240" vehsPerHour="4.541509874281156"/>
  <flow id="JF85606" begin="180" fromJunction="J4" toJunction="J5" end="240" vehsPerHour="42.090979378296986"/>
  <flow id="JF85607" begin="180" fromJunction="J4" toJunction="J6" end="240" vehsPerHour="17.089842707577333"/>
  <flow id="JF85608" begin="180" fromJunction="J5" toJunction="J0" end="240" vehsPerHour="18.72298247608109"/>
  <flow id="JF85609" begin="180" fromJunction="J5" toJunction="J4" end="240" vehsPerHour="46.046751823372645"/>
  <flow id="JF85610" begin="180" fromJunction="J6" toJunction="J0" end="240" vehsPerHour="34.5733502653163"/>
  <flow id="JF85611" begin="180" fromJunction="J6" toJunction="J3" end="240" vehsPerHour="59.79128696119152"/>
  <flow id="JF85612" begin="180" fromJunction="J6" toJunction="J4" end="240" vehsPerHour="37.29709172768399"/>
  <flow id="JF85613" begin="180" fromJunction="J6" toJunction="J5" end="240" vehsPerHour="31.001177215484503"/>
  <flow id="JF85614" begin="180" fromJunction="J7" toJunction="J0" end="240" vehsPerHour="34.26486370791895"/>
  <flow id="JF85615" begin="180" fromJunction="J7" toJunction="J5" end="240" vehsPerHour="0.5393813511569752"/>
  <flow id="JF85616" begin="180" fromJunction="J7" toJunction="J6" end="240" vehsPerHour="44.12759166338984"/>
  <flow id="JF85617" begin="240" fromJunction="J0" toJunction="J3" end="300" vehsPerHour="121.58913362237304"/>
  <flow id="JF85618" begin="240" fromJunction="J0" toJunction="J4" end="300" vehsPerHour="0.7979156059045185"/>
  <flow id="JF85619" begin="240" fromJunction="J0" toJunction="J6" end="300" vehsPerHour="29.86922393728467"/>
  <flow id="JF85620" begin="240" fromJunction="J0" toJunction="J7" end="300" vehsPerHour="35.71308826438997"/>
  <flow id="JF85621" begin="240" fromJunction="J3" toJunction="J0" end="300" vehsPerHour="84.46090421788013"/>
  <flow id="JF85622" begin="240" fromJunction="J3" toJunction="J5" end="300" vehsPerHour="119.163870249917"/>
  <flow id="JF85623" begin="240" fromJunction="J3" toJunction="J6" end="300" vehsPerHour="41.70630698885325"/>
  <flow id="JF85624" begin="240" fromJunction="J3" toJunction="J7" end="300" vehsPerHour="137.3867838326128"/>
  <flow id="JF85625" begin="240" fromJunction="J4" toJunction="J0" end="300" vehsPerHour="41.27210247731806"/>
  <flow id="JF85626" begin="240" fromJunction="J4" toJunction="J3" end="300" vehsPerHour="21.776723320473707"/>
  <flow id="JF85627" begin="240" fromJunction="J4" toJunction="J5" end="300" vehsPerHour="24.999680464386913"/>
  <flow id="JF85628" begin="240" fromJunction="J4" toJunction="J6" end="300" vehsPerHour="23.185742392958225"/>
  <flow id="JF85629" begin="240" fromJunction="J4" toJunction="J7" end="300" vehsPerHour="31.57337097693923"/>
  <flow id="JF85630" begin="240" fromJunction="J5" toJunction="J0" end="300" vehsPerHour="62.92957394261394"/>
  <flow id="JF85631" begin="240" fromJunction="J5" toJunction="J4" end="300" vehsPerHour="40.57566535964566"/>
  <flow id="JF85632" begin="240" fromJunction="J5" toJunction="J7" end="300" vehsPerHour="37.20180918158945"/>
  <flow id="JF85633" begin="240" fromJunction="J6" toJunction="J0" end="300" vehsPerHour="25.75824612247734"/>
  <flow id="JF85634" begin="240" fromJunction="J6" toJunction="J4" end="300" vehsPerHour="58.6159976120841"/>
  <flow id="JF85635" begin="240" fromJunction="J6" toJunction="J5" end="300" vehsPerHour="34.93972770146444"/>
  <flow id="JF85636" begin="240" fromJunction="J6" toJunction="J7" end="300" vehsPerHour="28.839298085137308"/>
  <flow id="JF85637" begin="240" fromJunction="J7" toJunction="J0" end="300" vehsPerHour="39.74141176165557"/>
  <flow id="JF85638" begin="240" fromJunction="J7" toJunction="J4" end="300" vehsPerHour="34.35469894686966"/>
  <flow id="JF85639" begin="240" fromJunction="J7" toJunction="J5" end="300" vehsPerHour="37.00506594464459"/>
  <flow id="JF85640" begin="240" fromJunction="J7" toJunction="J6" end="300" vehsPerHour="66.02209103738377"/>
  <flow id="JF85641" begin="300" fromJunction="J0" toJunction="J3" end="360" vehsPerHour="61.195613886255884"/>
  <flow id="JF85642" begin="300" fromJunction="J0" toJunction="J5" end="360" vehsPerHour="17.58585221304578"/>
  <flow id="JF85643" begin="300" fromJunction="J0" toJunction="J6" end="360" vehsPerHour="1.2174659751407677"/>
  <flow id="JF85644" begin="300" fromJunction="J3" toJunction="J0" end="360" vehsPerHour="43.915740054803514"/>
  <flow id="JF85645" begin="300" fromJunction="J3" toJunction="J4" end="360" vehsPerHour="118.63643488188157"/>
  <flow id="JF85646" begin="300" fromJunction="J3" toJunction="J5" end="360" vehsPerHour="53.96933743493349"/>
  <flow id="JF85647" begin="300" fromJunction="J3" toJunction="J6" end="360" vehsPerHour="20.403068408266247"/>
  <flow id="JF85648" begin="300" fromJunction="J3" toJunction="J7" end="360" vehsPerHour="90.0696627670129"/>
  <flow id="JF85649" begin="300" fromJunction="J4" toJunction="J0" end="360" vehsPerHour="43.780851429050124"/>
  <flow id="JF85650" begin="300" fromJunction="J4" toJunction="J5" end="360" vehsPerHour="44.16471466451191"/>
  <flow id="JF85651" begin="300" fromJunction="J4" toJunction="J6" end="360" vehsPerHour="26.92128953493544"/>
  <flow id="JF85652" begin="300" fromJunction="J4" toJunction="J7" end="360" vehsPerHour="9.600881406388265"/>
  <flow id="JF85653" begin="300" fromJunction="J5" toJunction="J0" end="360" vehsPerHour="60.46143848474267"/>
  <flow id="JF85654" begin="300" fromJunction="J5" toJunction="J3" end="360" vehsPerHour="55.00141153146524"/>
  <flow id="JF85655" begin="300" fromJunction="J5" toJunction="J6" end="360" vehsPerHour="36.88322085697869"/>
  <flow id="JF85656" begin="300" fromJunction="J5" toJunction="J7" end="360" vehsPerHour="52.49789577415042"/>
  <flow id="JF85657" begin="300" fromJunction="J6" toJunction="J0" end="360" vehsPerHour="28.864922978764362"/>
  <flow id="JF85658" begin="300" fromJunction="J6" toJunction="J3" end="360" vehsPerHour="63.40110211880913"/>
  <flow id="JF85659" begin="300" fromJunction="J6" toJunction="J4" end="360" vehsPerHour="49.98417127362455"/>
  <flow id="JF85660" begin="300" fromJunction="J6" toJunction="J5" end="360" vehsPerHour="19.49066920841454"/>
  <flow id="JF85661" begin="300" fromJunction="J6" toJunction="J7" end="360" vehsPerHour="57.245813241270056"/>
  <flow id="JF85662" begin="300" fromJunction="J7" toJunction="J0" end="360" vehsPerHour="49.33923011495566"/>
  <flow id="JF85663" begin="300" fromJunction="J7" toJunction="J3" end="360" vehsPerHour="9.026935929058476"/>
  <flow id="JF85664" begin="300" fromJunction="J7" toJunction="J5" end="360" vehsPerHour="9.435758927856122"/>
  <flow id="JF85665" begin="300" fromJunction="J7" toJunction="J6" end="360" vehsPerHour="41.12993182490028"/>
  <flow id="JF85666" begin="360" fromJunction="J0" toJunction="J3" end="420" vehsPerHour="11.770093966268869"/>
  <flow id="JF85667" begin="360" fromJunction="J0" toJunction="J4" end="420" vehsPerHour="24.631563678173332"/>
  <flow id="JF85668" begin="360" fromJunction="J0" toJunction="J5" end="420" vehsPerHour="40.00781759758728"/>
  <flow id="JF85669" begin="360" fromJunction="J0" toJunction="J7" end="420" vehsPerHour="51.75349975428441"/>
  <flow id="JF85670" begin="360" fromJunction="J3" toJunction="J0" end="420" vehsPerHour="123.80445429314989"/>
  <flow id="JF85671" begin="360" fromJunction="J3" toJunction="J4" end="420" vehsPerHour="133.0112596436742"/>
  <flow id="JF85672" begin="360" fromJunction="J3" toJunction="J5" end="420" vehsPerHour="95.1428067893073"/>
  <flow id="JF85673" begin="360" fromJunction="J3" toJunction="J6" end="420" vehsPerHour="104.99163313635997"/>
  <flow id="JF85674" begin="360" fromJunction="J3" toJunction="J7" end="420" vehsPerHour="23.152582368259747"/>
  <flow id="JF85675" begin="360" fromJunction="J4" toJunction="J0" end="420" vehsPerHour="11.949528852623356"/>
  <flow id="JF85676" begin="360" fromJunction="J4" toJunction="J3" end="420" vehsPerHour="27.733832965275408"/>
  <flow id="JF85677" begin="360" fromJunction="J4" toJunction="J5" end="420" vehsPerHour="53.06511976627236"/>
  <flow id="JF85678" begin="360" fromJunction="J4" toJunction="J6" end="420" vehsPerHour="28.14787538220997"/>
  <flow id="JF85679" begin="360" fromJunction="J5" toJunction="J0" end="420" vehsPerHour="18.167778144559243"/>
  <flow id="JF85680" begin="360" fromJunction="J5" toJunction="J4" end="420" vehsPerHour="16.98854400018785"/>
  <flow id="JF85681" begin="360" fromJunction="J5" toJunction="J6" end="420" vehsPerHour="15.982404441106521"/>
  <flow id="JF85682" begin="360" fromJunction="J5" toJunction="J7" end="420" vehsPerHour="25.90799806175031"/>
  <flow id="JF85683" begin="360" fromJunction="J6" toJunction="J3" end="420" vehsPerHour="25.96623822543673"/>
  <flow id="JF85684" begin="360" fromJunction="J6" toJunction="J4" end="420" vehsPerHour="8.7293261012356"/>
  <flow id="JF85685" begin="360" fromJunction="J6" toJunction="J5" end="420" vehsPerHour="18.18351506479853"/>
  <flow id="JF85686" begin="360" fromJunction="J6" toJunction="J7" end="420" vehsPerHour="30.05843202468345"/>
  <flow id="JF85687" begin="360" fromJunction="J7" toJunction="J0" end="420" vehsPerHour="29.281828741127843"/>
  <flow id="JF85688" begin="360" fromJunction="J7" toJunction="J3" end="420" vehsPerHour="31.68524455221426"/>
  <flow id="JF85689" begin="360" fromJunction="J7" toJunction="J4" end="420" vehsPerHour="41.67743343891646"/>
  <flow id="JF85690" begin="420" fromJunction="J0" toJunction="J4" end="480" vehsPerHour="93.70931091337907"/>
  <flow id="JF85691" begin="420" fromJunction="J0" toJunction="J5" end="480" vehsPerHour="124.49180439588386"/>
  <flow id="JF85692" begin="420" fromJunction="J0" toJunction="J6" end="480" vehsPerHour="34.525725004908246"/>
  <flow id="JF85693" begin="420" fromJunction="J0" toJunction="J7" end="480" vehsPerHour="32.74169956218449"/>
  <flow id="JF85694" begin="420" fromJunction="J3" toJunction="J0" end="480" vehsPerHour="131.11489688733022"/>
  <flow id="JF85695" begin="420" fromJunction="J3" toJunction="J5" end="480" vehsPerHour="82.1911709118103"/>
  <flow id="JF85696" begin="420" fromJunction="J3" toJunction="J7" end="480" vehsPerHour="77.15139087927629"/>
  <flow id="JF85697" begin="420" fromJunction="J4" toJunction="J0" end="480" vehsPerHour="37.03500921701691"/>
  <flow id="JF85698" begin="420" fromJunction="J4" toJunction="J3" end="480" vehsPerHour="49.11734424758122"/>
  <flow id="JF85699" begin="420" fromJunction="J4" toJunction="J5" end="480" vehsPerHour="35.07505888212432"/>
  <flow id="JF85700" begin="420" fromJunction="J4" toJunction="J6" end="480" vehsPerHour="48.71725111640337"/>
  <flow id="JF85701" begin="420" fromJunction="J4" toJunction="J7" end="480" vehsPerHour="22.902008608586172"/>
  <flow id="JF85702" begin="420" fromJunction="J5" toJunction="J0" end="480" vehsPerHour="64.9982769979714"/>
  <flow id="JF85703" begin="420" fromJunction="J5" toJunction="J3" end="480" vehsPerHour="1.635275043042439"/>
  <flow id="JF85704" begin="420" fromJunction="J5" toJunction="J4" end="480" vehsPerHour="11.42520824670519"/>
  <flow id="JF85705" begin="420" fromJunction="J5" toJunction="J6" end="480" vehsPerHour="39.57552595836949"/>
  <flow id="JF85706" begin="420" fromJunction="J6" toJunction="J3" end="480" vehsPerHour="13.119643461434801"/>
  <flow id="JF85707" begin="420" fromJunction="J6" toJunction="J5" end="480" vehsPerHour="42.413859969486964"/>
  <flow id="JF85708" begin="420" fromJunction="J6" toJunction="J7" end="480" vehsPerHour="68.25821233193017"/>
  <flow id="JF85709" begin="420" fromJunction="J7" toJunction="J3" end="480" vehsPerHour="31.075893625372508"/>
  <flow id="JF85710" begin="420" fromJunction="J7" toJunction="J4" end="480" vehsPerHour="68.55879435152724"/>
  <flow id="JF85711" begin="420" fromJunction="J7" toJunction="J5" end="480" vehsPerHour="38.96704204241262"/>
  <flow id="JF85712" begin="480" fromJunction="J0" toJunction="J3" end="540" vehsPerHour="125.84948909851259"/>
  <flow id="JF85713" begin="480" fromJunction="J0" toJunction="J7" end="540" vehsPerHour="77.70517705893116"/>
  <flow id="JF85714" begin="480" fromJunction="J3" toJunction="J0" end="540" vehsPerHour="49.56963050604803"/>
  <flow id="JF85715" begin="480" fromJunction="J3" toJunction="J4" end="540" vehsPerHour="98.25968657680599"/>
  <flow id="JF85716" begin="480" fromJunction="J3" toJunction="J5" end="540" vehsPerHour="55.16016455256672"/>
  <flow id="JF85717" begin="480" fromJunction="J3" toJunction="J6" end="540" vehsPerHour="117.6986683207579"/>
  <flow id="JF85718" begin="480" fromJunction="J3" toJunction="J7" end="540" vehsPerHour="128.1600753315154"/>
  <flow id="JF85719" begin="480" fromJunction="J4" toJunction="J3" end="540" vehsPerHour="38.2658736011925"/>
  <flow id="JF85720" begin="480" fromJunction="J4" toJunction="J7" end="540" vehsPerHour="67.36610019895306"/>
  <flow id="JF85721" begin="480" fromJunction="J5" toJunction="J0" end="540" vehsPerHour="9.987387147405208"/>
  <flow id="JF85722" begin="480" fromJunction="J5" toJunction="J3" end="540" vehsPerHour="9.117105921019999"/>
  <flow id="JF85723" begin="480" fromJunction="J5" toJunction="J4" end="540" vehsPerHour="66.63381727568536"/>
  <flow id="JF85724" begin="480" fromJunction="J5" toJunction="J6" end="540" vehsPerHour="34.38058376650172"/>
  <flow id="JF85725" begin="480" fromJunction="J6" toJunction="J0" end="540" vehsPerHour="43.16640487248056"/>
  <flow id="JF85726" begin="480" fromJunction="J6" toJunction="J3" end="540" vehsPerHour="37.50820808940118"/>
  <flow id="JF85727" begin="480" fromJunction="J6" toJunction="J5" end="540" vehsPerHour="46.34838919277681"/>
  <flow id="JF85728" begin="480" fromJunction="J7" toJunction="J3" end="540" vehsPerHour="45.52076462725537"/>
  <flow id="JF85729" begin="540" fromJunction="J0" toJunction="J3" end="600" vehsPerHour="31.621539423959142"/>
  <flow id="JF85730" begin="540" fromJunction="J0" toJunction="J4" end="600" vehsPerHour="57.42513452793244"/>
  <flow id="JF85731" begin="540" fromJunction="J0" toJunction="J5" end="600" vehsPerHour="68.7875209546894"/>
  <flow id="JF85732" begin="540" fromJunction="J0" toJunction="J6" end="600" vehsPerHour="96.32593584098186"/>
  <flow id="JF85733" begin="540" fromJunction="J3" toJunction="J4" end="600" vehsPerHour="4.078381306985875"/>
  <flow id="JF85734" begin="540" fromJunction="J3" toJunction="J5" end="600" vehsPerHour="19.007312402288758"/>
  <flow id="JF85735" begin="540" fromJunction="J3" toJunction="J7" end="600" vehsPerHour="42.71041876052801"/>
  <flow id="JF85736" begin="540" fromJunction="J4" toJunction="J0" end="600" vehsPerHour="7.740664027320875"/>
  <flow id="JF85737" begin="540" fromJunction="J4" toJunction="J3" end="600" vehsPerHour="60.755171045940806"/>
  <flow id="JF85738" begin="540" fromJunction="J4" toJunction="J5" end="600" vehsPerHour="49.96883938754077"/>
  <flow id="JF85739" begin="540" fromJunction="J4" toJunction="J7" end="600" vehsPerHour="62.81155925757904"/>
  <flow id="JF85740" begin="540" fromJunction="J5" toJunction="J3" end="600" vehsPerHour="1.2157208835258841"/>
  <flow id="JF85741" begin="540" fromJunction="J5" toJunction="J4" end="600" vehsPerHour="67.69882794327731"/>
  <flow id="JF85742" begin="540" fromJunction="J5" toJunction="J6" end="600" vehsPerHour="49.08957542700319"/>
  <flow id="JF85743" begin="540" fromJunction="J5" toJunction="J7" end="600" vehsPerHour="23.279290525722963"/>
  <flow id="JF85744" begin="540" fromJunction="J6" toJunction="J0" end="600" vehsPerHour="55.583082014268435"/>
  <flow id="JF85745" begin="540" fromJunction="J6" toJunction="J3" end="600" vehsPerHour="17.349954468898975"/>
  <flow id="JF85746" begin="540" fromJunction="J6" toJunction="J5" end="600" vehsPerHour="14.137229998629797"/>
  <flow id="JF85747" begin="540" fromJunction="J6" toJunction="J7" end="600" vehsPerHour="61.136038777754585"/>
  <flow id="JF85748" begin="540" fromJunction="J7" toJunction="J0" end="600" vehsPerHour="20.627508773482564"/>
  <flow id="JF85749" begin="540" fromJunction="J7" toJunction="J3" end="600" vehsPerHour="36.5690363233535"/>
  <flow id="JF85750" begin="540" fromJunction="J7" toJunction="J5" end="600" vehsPerHour="63.22710076403212"/>
  <flow id="JF85751" begin="540" fromJunction="J7" toJunction="J6" end="600" vehsPerHour="49.19807364756872"/>
  <flow id="JF85752" begin="600" fromJunction="J0" toJunction="J4" end="660" vehsPerHour="73.31422648363224"/>
  <flow id="JF85753" begin="600" fromJunction="J0" toJunction="J5" end="660" vehsPerHour="74.55200441188698"/>
  <flow id="JF85754" begin="600" fromJunction="J0" toJunction="J6" end="660" vehsPerHour="14.927323286350541"/>
  <flow id="JF85755" begin="600" fromJunction="J3" toJunction="J0" end="660" vehsPerHour="92.10470869210221"/>
  <flow id="JF85756" begin="600" fromJunction="J3" toJunction="J4" end="660" vehsPerHour="90.22582861644398"/>
  <flow id="JF85757" begin="600" fromJunction="J3" toJunction="J6" end="660" vehsPerHour="72.2888546679661"/>
  <flow id="JF85758" begin="600" fromJunction="J3" toJunction="J7" end="660" vehsPerHour="30.79195665306557"/>
  <flow id="JF85759" begin="600" fromJunction="J4" toJunction="J0" end="660" vehsPerHour="43.70509028471862"/>
  <flow id="JF85760" begin="600" fromJunction="J4" toJunction="J3" end="660" vehsPerHour="13.756707663434645"/>
  <flow id="JF85761" begin="600" fromJunction="J4" toJunction="J5" end="660" vehsPerHour="24.85664046294809"/>
  <flow id="JF85762" begin="600" fromJunction="J5" toJunction="J3" end="660" vehsPerHour="19.094668257501528"/>
  <flow id="JF85763" begin="600" fromJunction="J5" toJunction="J4" end="660" vehsPerHour="52.8224791740958"/>
  <flow id="JF85764" begin="600" fromJunction="J5" toJunction="J6" end="660" vehsPerHour="35.08439839047735"/>
  <flow id="JF85765" begin="600" fromJunction="J5" toJunction="J7" end="660" vehsPerHour="46.98284513907622"/>
  <flow id="JF85766" begin="600" fromJunction="J6" toJunction="J0" end="660" vehsPerHour="54.21925665126905"/>
  <flow id="JF85767" begin="600" fromJunction="J6" toJunction="J3" end="660" vehsPerHour="4.960915648949281"/>
  <flow id="JF85768" begin="600" fromJunction="J6" toJunction="J5" end="660" vehsPerHour="33.314545111737594"/>
  <flow id="JF85769" begin="600" fromJunction="J7" toJunction="J0" end="660" vehsPerHour="48.9398550217662"/>
  <flow id="JF85770" begin="600" fromJunction="J7" toJunction="J3" end="660" vehsPerHour="12.484248494531633"/>
  <flow id="JF85771" begin="600" fromJunction="J7" toJunction="J5" end="660" vehsPerHour="39.13219934568511"/>
  <flow id="JF85772" begin="600" fromJunction="J7" toJunction="J6" end="660" vehsPerHour="13.14302879326652"/>
  <flow id="JF85773" begin="660" fromJunction="J0" toJunction="J3" end="720" vehsPerHour="86.34523127042634"/>
  <flow id="JF85774" begin="660" fromJunction="J0" toJunction="J5" end="720" vehsPerHour="72.48168398875313"/>
  <flow id="JF85775" begin="660" fromJunction="J0" toJunction="J7" end="720" vehsPerHour="20.453083828520676"/>
  <flow id="JF85776" begin="660" fromJunction="J3" toJunction="J0" end="720" vehsPerHour="4.299550656989138"/>
  <flow id="JF85777" begin="660" fromJunction="J3" toJunction="J4" end="720" vehsPerHour="135.62025699754165"/>
  <flow id="JF85778" begin="660" fromJunction="J3" toJunction="J5" end="720" vehsPerHour="135.10853854204208"/>
  <flow id="JF85779" begin="660" fromJunction="J3" toJunction="J6" end="720" vehsPerHour="62.31585610949379"/>
  <flow id="JF85780" begin="660" fromJunction="J3" toJunction="J7" end="720" vehsPerHour="99.43417999238036"/>
  <flow id="JF85781" begin="660" fromJunction="J4" toJunction="J3" end="720" vehsPerHour="16.007722383211252"/>
  <flow id="JF85782" begin="660" fromJunction="J4" toJunction="J5" end="720" vehsPerHour="22.551425914233786"/>
  <flow id="JF85783" begin="660" fromJunction="J4" toJunction="J7" end="720" vehsPerHour="43.833525106899195"/>
  <flow id="JF85784" begin="660" fromJunction="J5" toJunction="J0" end="720" vehsPerHour="25.695522088722033"/>
  <flow id="JF85785" begin="660" fromJunction="J5" toJunction="J4" end="720" vehsPerHour="22.196584158248726"/>
  <flow id="JF85786" begin="660" fromJunction="J5" toJunction="J6" end="720" vehsPerHour="60.82832007794211"/>
  <flow id="JF85787" begin="660" fromJunction="J5" toJunction="J7" end="720" vehsPerHour="41.30730715864608"/>
  <flow id="JF85788" begin="660" fromJunction="J6" toJunction="J0" end="720" vehsPerHour="53.52533888536803"/>
  <flow id="JF85789" begin="660" fromJunction="J6" toJunction="J3" end="720" vehsPerHour="67.10186253326057"/>
  <flow id="JF85790" begin="660" fromJunction="J6" toJunction="J5" end="720" vehsPerHour="62.13166920734466"/>
  <flow id="JF85791" begin="660" fromJunction="J6" toJunction="J7" end="720" vehsPerHour="68.38164614946936"/>
  <flow id="JF85792" begin="660" fromJunction="J7" toJunction="J4" end="720" vehsPerHour="64.98929103566947"/>
  <flow id="JF85793" begin="720" fromJunction="J0" toJunction="J3" end="780" vehsPerHour="9.63966962110026"/>
  <flow id="JF85794" begin="720" fromJunction="J0" toJunction="J4" end="780" vehsPerHour="86.87953580848469"/>
  <flow id="JF85795" begin="720" fromJunction="J0" toJunction="J6" end="780" vehsPerHour="74.92814738870408"/>
  <flow id="JF85796" begin="720" fromJunction="J0" toJunction="J7" end="780" vehsPerHour="102.98799620151726"/>
  <flow id="JF85797" begin="720" fromJunction="J3" toJunction="J0" end="780" vehsPerHour="110.20888282796848"/>
  <flow id="JF85798" begin="720" fromJunction="J3" toJunction="J4" end="780" vehsPerHour="69.49343543175085"/>
  <flow id="JF85799" begin="720" fromJunction="J3" toJunction="J5" end="780" vehsPerHour="100.51608828697253"/>
  <flow id="JF85800" begin="720" fromJunction="J3" toJunction="J6" end="780" vehsPerHour="131.99601655203364"/>
  <flow id="JF85801" begin="720" fromJunction="J3" toJunction="J7" end="780" vehsPerHour="118.2486826373101"/>
  <flow id="JF85802" begin="720" fromJunction="J4" toJunction="J0" end="780" vehsPerHour="34.74538115890605"/>
  <flow id="JF85803" begin="720" fromJunction="J4" toJunction="J3" end="780" vehsPerHour="65.76142886603964"/>
  <flow id="JF85804" begin="720" fromJunction="J4" toJunction="J5" end="780" vehsPerHour="0.42418346741651924"/>