<?xml version="1.0" encoding="UTF-8"?>
<routes xmlns:xsi="http://www.w3.org/2001/XMLSchema-instance" xsi:noNamespaceSchemaLocation="http://sumo.dlr.de/xsd/routes_file.xsd">
  <flow id="JF89094" begin="0" fromJunction="J0" toJunction="J3" end="60" vehsPerHour="19.082936267920907"/>
  <flow id="JF89095" begin="0" fromJunction="J0" toJunction="J4" end="60" vehsPerHour="48.042394788894896"/>
  <flow id="JF89096" begin="0" fromJunction="J0" toJunction="J5" end="60" vehsPerHour="137.3786983750254"/>
  <flow id="JF89097" begin="0" fromJunction="J0" toJunction="J6" end="60" vehsPerHour="110.32834660543092"/>
  <flow id="JF89098" begin="0" fromJunction="J0" toJunction="J7" end="60" vehsPerHour="21.881735633576618"/>
  <flow id="JF89099" begin="0" fromJunction="J3" toJunction="J0" end="60" vehsPerHour="105.68495773442662"/>
  <flow id="JF89100" begin="0" fromJunction="J3" toJunction="J6" end="60" vehsPerHour="25.25877831493842"/>
  <flow id="JF89101" begin="0" fromJunction="J3" toJunction="J7" end="60" vehsPerHour="100.08831534934991"/>
  <flow id="JF89102" begin="0" fromJunction="J4" toJunction="J0" end="60" vehsPerHour="60.411105544707524"/>
  <flow id="JF89103" begin="0" fromJunction="J4" toJunction="J6" end="60" vehsPerHour="4.801817596301763"/>
  <flow id="JF89104" begin="0" fromJunction="J4" toJunction="J7" end="60" vehsPerHour="9.599850508601069"/>
  <flow id="JF89105" begin="0" fromJunction="J5" toJunction="J0" end="60" vehsPerHour="57.73576932831725"/>
  <flow id="JF89106" begin="0" fromJunction="J5" toJunction="J4" end="60" vehsPerHour="53.621652074506756"/>
  <flow id="JF89107" begin="0" fromJunction="J6" toJunction="J3" end="60" vehsPerHour="25.617602028766697"/>
  <flow id="JF89108" begin="0" fromJunction="J6" toJunction="J4" end="60" vehsPerHour="16.992441617092084"/>
  <flow id="JF89109" begin="0" fromJunction="J6" toJunction="J5" end="60" vehsPerHour="2.300182403864858"/>
  <flow id="JF89110" begin="0" fromJunction="J6" toJunction="J7" end="60" vehsPerHour="26.287400216411992"/>
  <flow id="JF89111" begin="0" fromJunction="J7" toJunction="J0" end="60" vehsPerHour="19.122358497800317"/>
  <flow id="JF89112" begin="0" fromJunction="J7" toJunction="J3" end="60" vehsPerHour="25.912716512228382"/>
  <flow id="JF89113" begin="0" fromJunction="J7" toJunction="J4" end="60" vehsPerHour="52.43704032013826"/>
  <flow id="JF89114" begin="0" fromJunction="J7" toJunction="J5" end="60" vehsPerHour="43.91693565405063"/>
  <flow id="JF89115" begin="60" fromJunction="J0" toJunction="J3" end="120" vehsPerHour="133.50232402420886"/>
  <flow id="JF89116" begin="60" fromJunction="J0" toJunction="J4" end="120" vehsPerHour="32.90050802692246"/>
  <flow id="JF89117" begin="60" fromJunction="J0" toJunction="J6" end="120" vehsPerHour="16.245355147762606"/>
  <flow id="JF89118" begin="60" fromJunction="J3" toJunction="J0" end="120" vehsPerHour="108.11419512675701"/>
  <flow id="JF89119" begin="60" fromJunction="J3" toJunction="J6" end="120" vehsPerHour="44.78065394097966"/>
  <flow id="JF89120" begin="60" fromJunction="J3" toJunction="J7" end="120" vehsPerHour="17.82128216901987"/>
  <flow id="JF89121" begin="60" fromJunction="J4" toJunction="J0" end="120" vehsPerHour="0.38107434329746487"/>
  <flow id="JF89122" begin="60" fromJunction="J4" toJunction="J3" end="120" vehsPerHour="13.604212346325978"/>
  <flow id="JF89123" begin="60" fromJunction="J4" toJunction="J5" end="120" vehsPerHour="32.449827881032455"/>
  <flow id="JF89124" begin="60" fromJunction="J4" toJunction="J7" end="120" vehsPerHour="51.50040135991317"/>
  <flow id="JF89125" begin="60" fromJunction="J5" toJunction="J0" end="120" vehsPerHour="58.43777020905588"/>
  <flow id="JF89126" begin="60" fromJunction="J5" toJunction="J7" end="120" vehsPerHour="21.823976038917515"/>
  <flow id="JF89127" begin="60" fromJunction="J6" toJunction="J0" end="120" vehsPerHour="13.37530717818314"/>
  <flow id="JF89128" begin="60" fromJunction="J6" toJunction="J3" end="120" vehsPerHour="31.947637411728838"/>
  <flow id="JF89129" begin="60" fromJunction="J6" toJunction="J4" end="120" vehsPerHour="57.07527294168612"/>
  <flow id="JF89130" begin="60" fromJunction="J6" toJunction="J5" end="120" vehsPerHour="39.71297124678999"/>
  <flow id="JF89131" begin="60" fromJunction="J7" toJunction="J3" end="120" vehsPerHour="32.735676889800814"/>
  <flow id="JF89132" begin="60" fromJunction="J7" toJunction="J4" end="120" vehsPerHour="35.937633619917364"/>
  <flow id="JF89133" begin="60" fromJunction="J7" toJunction="J5" end="120" vehsPerHour="3.6446809247673886"/>
  <flow id="JF89134" begin="60" fromJunction="J7" toJunction="J6" end="120" vehsPerHour="65.42613144616834"/>
  <flow id="JF89135" begin="120" fromJunction="J0" toJunction="J3" end="180" vehsPerHour="124.05440154743626"/>
  <flow id="JF89136" begin="120" fromJunction="J0" toJunction="J4" end="180" vehsPerHour="17.087893827152875"/>
  <flow id="JF89137" begin="120" fromJunction="J0" toJunction="J5" end="180" vehsPerHour="69.8898573572659"/>
  <flow id="JF89138" begin="120" fromJunction="J0" toJunction="J6" end="180" vehsPerHour="96.9824047130685"/>
  <flow id="JF89139" begin="120" fromJunction="J0" toJunction="J7" end="180" vehsPerHour="14.397214557738085"/>
  <flow id="JF89140" begin="120" fromJunction="J3" toJunction="J0" end="180" vehsPerHour="113.76981157312602"/>
  <flow id="JF89141" begin="120" fromJunction="J3" toJunction="J4" end="180" vehsPerHour="98.94656703764264"/>
  <flow id="JF89142" begin="120" fromJunction="J3" toJunction="J5" end="180" vehsPerHour="129.72612816788214"/>
  <flow id="JF89143" begin="120" fromJunction="J3" toJunction="J6" end="180" vehsPerHour="112.23757867993602"/>
  <flow id="JF89144" begin="120" fromJunction="J3" toJunction="J7" end="180" vehsPerHour="39.59243783559839"/>
  <flow id="JF89145" begin="120" fromJunction="J4" toJunction="J0" end="180" vehsPerHour="24.714192975318134"/>
  <flow id="JF89146" begin="120" fromJunction="J4" toJunction="J3" end="180" vehsPerHour="21.417332628333988"/>
  <flow id="JF89147" begin="120" fromJunction="J4" toJunction="J7" end="180" vehsPerHour="28.54544493031485"/>
  <flow id="JF89148" begin="120" fromJunction="J5" toJunction="J0" end="180" vehsPerHour="54.00293780543438"/>
  <flow id="JF89149" begin="120" fromJunction="J5" toJunction="J3" end="180" vehsPerHour="39.001050510049126"/>
  <flow id="JF89150" begin="120" fromJunction="J5" toJunction="J4" end="180" vehsPerHour="29.98042191353522"/>
  <flow id="JF89151" begin="120" fromJunction="J5" toJunction="J6" end="180" vehsPerHour="11.910527203222031"/>
  <flow id="JF89152" begin="120" fromJunction="J5" toJunction="J7" end="180" vehsPerHour="8.873837496671829"/>
  <flow id="JF89153" begin="120" fromJunction="J6" toJunction="J3" end="180" vehsPerHour="23.6643976379717"/>
  <flow id="JF89154" begin="120" fromJunction="J6" toJunction="J4" end="180" vehsPerHour="37.9078265327535"/>
  <flow id="JF89155" begin="120" fromJunction="J6" toJunction="J5" end="180" vehsPerHour="40.07848789408926"/>
  <flow id="JF89156" begin="120" fromJunction="J7" toJunction="J0" end="180" vehsPerHour="27.583183534571315"/>
  <flow id="JF89157" begin="120" fromJunction="J7" toJunction="J5" end="180" vehsPerHour="45.77741571591037"/>
  <flow id="JF89158" begin="180" fromJunction="J0" toJunction="J3" end="240" vehsPerHour="67.8409703315634"/>
  <flow id="JF89159" begin="180" fromJunction="J0" toJunction="J4" end="240" vehsPerHour="64.54544599306267"/>
  <flow id="JF89160" begin="180" fromJunction="J0" toJunction="J5" end="240" vehsPerHour="123.15599412583411"/>
  <flow id="JF89161" begin="180" fromJunction="J0" toJunction="J6" end="240" vehsPerHour="86.87631848293876"/>
  <flow id="JF89162" begin="180" fromJunction="J3" toJunction="J0" end="240" vehsPerHour="98.32811925771135"/>
  <flow id="JF89163" begin="180" fromJunction="J3" toJunction="J5" end="240" vehsPerHour="54.3177875653928"/>
  <flow id="JF89164" begin="180" fromJunction="J3" toJunction="J6" end="240" vehsPerHour="2.9416056782407662"/>
  <flow id="JF89165" begin="180" fromJunction="J4" toJunction="J0" end="240" vehsPerHour="2.775527067288765"/>
  <flow id="JF89166" begin="180" fromJunction="J4" toJunction="J6" end="240" vehsPerHour="26.24022266137184"/>
  <flow id="JF89167" begin="180" fromJunction="J4" toJunction="J7" end="240" vehsPerHour="44.808320651162106"/>
  <flow id="JF89168" begin="180" fromJunction="J5" toJunction="J0" end="240" vehsPerHour="17.821324540436986"/>
  <flow id="JF89169" begin="180" fromJunction="J5" toJunction="J3" end="240" vehsPerHour="14.557423189677982"/>
  <flow id="JF89170" begin="180" fromJunction="J5" toJunction="J6" end="240" vehsPerHour="9.611903205064662"/>
  <flow id="JF89171" begin="180" fromJunction="J6" toJunction="J0" end="240" vehsPerHour="63.25753311879704"/>
  <flow id="JF89172" begin="180" fromJunction="J6" toJunction="J4" end="240" vehsPerHour="20.765577898435993"/>
  <flow id="JF89173" begin="180" fromJunction="J6" toJunction="J7" end="240" vehsPerHour="48.6175416777923"/>
  <flow id="JF89174" begin="180" fromJunction="J7" toJunction="J0" end="240" vehsPerHour="57.13389077148228"/>
  <flow id="JF89175" begin="180" fromJunction="J7" toJunction="J4" end="240" vehsPerHour="34.41481031812382"/>
  <flow id="JF89176" begin="180" fromJunction="J7" toJunction="J5" end="240" vehsPerHour="42.223626849639366"/>
  <flow id="JF89177" begin="240" fromJunction="J0" toJunction="J4" end="300" vehsPerHour="100.82924241014138"/>
  <flow id="JF89178" begin="240" fromJunction="J0" toJunction="J5" end="300" vehsPerHour="3.916588650205607"/>
  <flow id="JF89179" begin="240" fromJunction="J0" toJunction="J6" end="300" vehsPerHour="95.88262622652667"/>
  <flow id="JF89180" begin="240" fromJunction="J0" toJunction="J7" end="300" vehsPerHour="27.150733189395034"/>
  <flow id="JF89181" begin="240" fromJunction="J3" toJunction="J0" end="300" vehsPerHour="21.040611891755695"/>
  <flow id="JF89182" begin="240" fromJunction="J3" toJunction="J4" end="300" vehsPerHour="117.81914973408888"/>
  <flow id="JF89183" begin="240" fromJunction="J3" toJunction="J5" end="300" vehsPerHour="21.62496878739312"/>
  <flow id="JF89184" begin="240" fromJunction="J3" toJunction="J7" end="300" vehsPerHour="135.98987351826693"/>
  <flow id="JF89185" begin="240" fromJunction="J4" toJunction="J3" end="300" vehsPerHour="21.611685208693007"/>
  <flow id="JF89186" begin="240" fromJunction="J4" toJunction="J5" end="300" vehsPerHour="31.022874301278453"/>
  <flow id="JF89187" begin="240" fromJunction="J4" toJunction="J6" end="300" vehsPerHour="8.087561159934205"/>
  <flow id="JF89188" begin="240" fromJunction="J4" toJunction="J7" end="300" vehsPerHour="17.690679349745064"/>
  <flow id="JF89189" begin="240" fromJunction="J5" toJunction="J0" end="300" vehsPerHour="41.019201308397506"/>
  <flow id="JF89190" begin="240" fromJunction="J5" toJunction="J6" end="300" vehsPerHour="20.538307731537397"/>
  <flow id="JF89191" begin="240" fromJunction="J6" toJunction="J3" end="300" vehsPerHour="24.692789828637096"/>
  <flow id="JF89192" begin="240" fromJunction="J6" toJunction="J5" end="300" vehsPerHour="56.20431073468599"/>
  <flow id="JF89193" begin="240" fromJunction="J7" toJunction="J0" end="300" vehsPerHour="21.34694476106895"/>
  <flow id="JF89194" begin="240" fromJunction="J7" toJunction="J4" end="300" vehsPerHour="22.320381683964012"/>
  <flow id="JF89195" begin="240" fromJunction="J7" toJunction="J5" end="300" vehsPerHour="5.548804428427898"/>
  <flow id="JF89196" begin="300" fromJunction="J0" toJunction="J3" end="360" vehsPerHour="90.47772080042705"/>
  <flow id="JF89197" begin="300" fromJunction="J0" toJunction="J4" end="360" vehsPerHour="17.261271510576766"/>
  <flow id="JF89198" begin="300" fromJunction="J0" toJunction="J5" end="360" vehsPerHour="48.436703189836685"/>
  <flow id="JF89199" begin="300" fromJunction="J0" toJunction="J6" end="360" vehsPerHour="0.8323996291926868"/>
  <flow id="JF89200" begin="300" fromJunction="J0" toJunction="J7" end="360" vehsPerHour="59.04889876383388"/>
  <flow id="JF89201" begin="300" fromJunction="J3" toJunction="J0" end="360" vehsPerHour="12.487164628651945"/>
  <flow id="JF89202" begin="300" fromJunction="J3" toJunction="J6" end="360" vehsPerHour="77.6979517734475"/>
  <flow id="JF89203" begin="300" fromJunction="J4" toJunction="J0" end="360" vehsPerHour="67.18148901907571"/>
  <flow id="JF89204" begin="300" fromJunction="J4" toJunction="J5" end="360" vehsPerHour="55.097890089389786"/>
  <flow id="JF89205" begin="300" fromJunction="J4" toJunction="J6" end="360" vehsPerHour="13.102956132000381"/>
  <flow id="JF89206" begin="300" fromJunction="J4" toJunction="J7" end="360" vehsPerHour="14.525227296163584"/>
  <flow id="JF89207" begin="300" fromJunction="J5" toJunction="J3" end="360" vehsPerHour="9.350875628206381"/>
  <flow id="JF89208" begin="300" fromJunction="J5" toJunction="J4" end="360" vehsPerHour="14.986817855183913"/>
  <flow id="JF89209" begin="300" fromJunction="J5" toJunction="J6" end="360" vehsPerHour="40.61422096118103"/>
  <flow id="JF89210" begin="300" fromJunction="J5" toJunction="J7" end="360" vehsPerHour="44.666940940153026"/>
  <flow id="JF89211" begin="300" fromJunction="J6" toJunction="J0" end="360" vehsPerHour="4.395048192625134"/>
  <flow id="JF89212" begin="300" fromJunction="J6" toJunction="J3" end="360" vehsPerHour="46.26697331401258"/>
  <flow id="JF89213" begin="300" fromJunction="J6" toJunction="J4" end="360" vehsPerHour="42.04922212492796"/>
  <flow id="JF89214" begin="300" fromJunction="J6" toJunction="J5" end="360" vehsPerHour="67.62446874307213"/>
  <flow id="JF89215" begin="300" fromJunction="J7" toJunction="J0" end="360" vehsPerHour="18.49432349548766"/>
  <flow id="JF89216" begin="300" fromJunction="J7" toJunction="J3" end="360" vehsPerHour="54.63822145228706"/>
  <flow id="JF89217" begin="300" fromJunction="J7" toJunction="J4" end="360" vehsPerHour="2.570127520187425"/>
  <flow id="JF89218" begin="300" fromJunction="J7" toJunction="J6" end="360" vehsPerHour="42.63304410286546"/>
  <flow id="JF89219" begin="360" fromJunction="J0" toJunction="J3" end="420" vehsPerHour="20.008944729052097"/>
  <flow id="JF89220" begin="360" fromJunction="J0" toJunction="J4" end="420" vehsPerHour="8.159386336925989"/>
  <flow id="JF89221" begin="360" fromJunction="J0" toJunction="J5" end="420" vehsPerHour="69.12840025172206"/>
  <flow id="JF89222" begin="360" fromJunction="J0" toJunction="J6" end="420" vehsPerHour="75.39976126227278"/>
  <flow id="JF89223" begin="360" fromJunction="J3" toJunction="J5" end="420" vehsPerHour="28.750014285329154"/>
  <flow id="JF89224" begin="360" fromJunction="J3" toJunction="J6" end="420" vehsPerHour="17.792187604829348"/>
  <flow id="JF89225" begin="360" fromJunction="J3" toJunction="J7" end="420" vehsPerHour="50.51400393650838"/>
  <flow id="JF89226" begin="360" fromJunction="J4" toJunction="J0" end="420" vehsPerHour="33.832273566999326"/>
  <flow id="JF89227" begin="360" fromJunction="J4" toJunction="J3" end="420" vehsPerHour="40.87906548960144"/>
  <flow id="JF89228" begin="360" fromJunction="J4" toJunction="J5" end="420" vehsPerHour="12.359452669067574"/>
  <flow id="JF89229" begin="360" fromJunction="J4" toJunction="J6" end="420" vehsPerHour="38.86243306601943"/>
  <flow id="JF89230" begin="360" fromJunction="J5" toJunction="J0" end="420" vehsPerHour="54.379239829558514"/>
  <flow id="JF89231" begin="360" fromJunction="J5" toJunction="J3" end="420" vehsPerHour="66.90690200953799"/>
  <flow id="JF89232" begin="360" fromJunction="J5" toJunction="J4" end="420" vehsPerHour="23.94126466293341"/>
  <flow id="JF89233" begin="360" fromJunction="J5" toJunction="J6" end="420" vehsPerHour="3.864392545518046"/>
  <flow id="JF89234" begin="360" fromJunction="J6" toJunction="J3" end="420" vehsPerHour="53.10862770359851"/>
  <flow id="JF89235" begin="360" fromJunction="J6" toJunction="J5" end="420" vehsPerHour="6.319263290306743"/>
  <flow id="JF89236" begin="360" fromJunction="J6" toJunction="J7" end="420" vehsPerHour="58.800302696363"/>
  <flow id="JF89237" begin="360" fromJunction="J7" toJunction="J0" end="420" vehsPerHour="9.929373329326133"/>
  <flow id="JF89238" begin="360" fromJunction="J7" toJunction="J5" end="420" vehsPerHour="16.42644390296156"/>
  <flow id="JF89239" begin="360" fromJunction="J7" toJunction="J6" end="420" vehsPerHour="30.200091028434898"/>
  <flow id="JF89240" begin="420" fromJunction="J0" toJunction="J3" end="480" vehsPerHour="34.558896809777636"/>
  <flow id="JF89241" begin="420" fromJunction="J0" toJunction="J4" end="480" vehsPerHour="42.56048883116341"/>
  <flow id="JF89242" begin="420" fromJunction="J0" toJunction="J5" end="480" vehsPerHour="37.697406209365546"/>
  <flow id="JF89243" begin="420" fromJunction="J0" toJunction="J6" end="480" vehsPerHour="8.420962289856325"/>
  <flow id="JF89244" begin="420" fromJunction="J0" toJunction="J7" end="480" vehsPerHour="47.3549261144473"/>
  <flow id="JF89245" begin="420" fromJunction="J3" toJunction="J4" end="480" vehsPerHour="117.05789757558924"/>
  <flow id="JF89246" begin="420" fromJunction="J3" toJunction="J5" end="480" vehsPerHour="1.2383876368816769"/>
  <flow id="JF89247" begin="420" fromJunction="J4" toJunction="J0" end="480" vehsPerHour="11.164430681813833"/>
  <flow id="JF89248" begin="420" fromJunction="J4" toJunction="J3" end="480" vehsPerHour="65.21985140797844"/>
  <flow id="JF89249" begin="420" fromJunction="J4" toJunction="J6" end="480" vehsPerHour="26.343858016758936"/>
  <flow id="JF89250" begin="420" fromJunction="J4" toJunction="J7" end="480" vehsPerHour="7.551810201620202"/>
  <flow id="JF89251" begin="420" fromJunction="J6" toJunction="J0" end="480" vehsPerHour="11.337026043125606"/>
  <flow id="JF89252" begin="420" fromJunction="J6" toJunction="J3" end="480" vehsPerHour="52.411988978148905"/>
  <flow id="JF89253" begin="420" fromJunction="J6" toJunction="J5" end="480" vehsPerHour="4.914758351873141"/>
  <flow id="JF89254" begin="420" fromJunction="J7" toJunction="J5" end="480" vehsPerHour="67.7305778037311"/>
  <flow id="JF89255" begin="420" fromJunction="J7" toJunction="J6" end="480" vehsPerHour="44.65051525261221"/>
  <flow id="JF89256" begin="480" fromJunction="J0" toJunction="J3" end="540" vehsPerHour="79.48894792586852"/>
  <flow id="JF89257" begin="480" fromJunction="J0" toJunction="J4" end="540" vehsPerHour="81.28013068380297"/>
  <flow id="JF89258" begin="480" fromJunction="J0" toJunction="J5" end="540" vehsPerHour="41.360017552304896"/>
  <flow id="JF89259" begin="480" fromJunction="J3" toJunction="J0" end="540" vehsPerHour="33.852331842041295"/>
  <flow id="JF89260" begin="480" fromJunction="J3" toJunction="J5" end="540" vehsPerHour="133.1041946328955"/>
  <flow id="JF89261" begin="480" fromJunction="J3" toJunction="J7" end="540" vehsPerHour="27.99603859073233"/>
  <flow id="JF89262" begin="480" fromJunction="J4" toJunction="J0" end="540" vehsPerHour="13.098565586643808"/>
  <flow id="JF89263" begin="480" fromJunction="J4" toJunction="J5" end="540" vehsPerHour="6.256538096735138"/>
  <flow id="JF89264" begin="480" fromJunction="J4" toJunction="J6" end="540" vehsPerHour="4.043966189694949"/>
  <flow id="JF89265" begin="480" fromJunction="J4" toJunction="J7" end="540" vehsPerHour="16.37569273748381"/>
  <flow id="JF89266" begin="480" fromJunction="J5" toJunction="J3" end="540" vehsPerHour="51.8286867456538"/>
  <flow id="JF89267" begin="480" fromJunction="J5" toJunction="J4" end="540" vehsPerHour="11.253323097905549"/>
  <flow id="JF89268" begin="480" fromJunction="J5" toJunction="J6" end="540" vehsPerHour="23.551826340419574"/>
  <flow id="JF89269" begin="480" fromJunction="J5" toJunction="J7" end="540" vehsPerHour="16.883109263507247"/>
  <flow id="JF89270" begin="480" fromJunction="J6" toJunction="J0" end="540" vehsPerHour="57.09655850423856"/>
  <flow id="JF89271" begin="480" fromJunction="J6" toJunction="J3" end="540" vehsPerHour="60.43184093612547"/>
  <flow id="JF89272" begin="480" fromJunction="J6" toJunction="J7" end="540" vehsPerHour="12.599197134877041"/>
  <flow id="JF89273" begin="480" fromJunction="J7" toJunction="J0" end="540" vehsPerHour="50.67215304157319"/>
  <flow id="JF89274" begin="480" fromJunction="J7" toJunction="J3" end="540" vehsPerHour="9.799010340132421"/>
  <flow id="JF89275" begin="480" fromJunction="J7" toJunction="J5" end="540" vehsPerHour="50.072349682825646"/>
  <flow id="JF89276" begin="480" fromJunction="J7" toJunction="J6" end="540" vehsPerHour="32.98003175406425"/>
  <flow id="JF89277" begin="540" fromJunction="J0" toJunction="J3" end="600" vehsPerHour="93.71434892529534"/>
  <flow id="JF89278" begin="540" fromJunction="J0" toJunction="J4" end="600" vehsPerHour="4.660839991516252"/>
  <flow id="JF89279" begin="540" fromJunction="J0" toJunction="J5" end="600" vehsPerHour="116.15544986662785"/>
  <flow id="JF89280" begin="540" fromJunction="J0" toJunction="J6" end="600" vehsPerHour="58.2571818220838"/>
  <flow id="JF89281" begin="540" fromJunction="J3" toJunction="J0" end="600" vehsPerHour="6.379319389687199"/>
  <flow id="JF89282" begin="540" fromJunction="J3" toJunction="J4" end="600" vehsPerHour="131.92503063022343"/>
  <flow id="JF89283" begin="540" fromJunction="J3" toJunction="J5" end="600" vehsPerHour="18.634961148190538"/>
  <flow id="JF89284" begin="540" fromJunction="J3" toJunction="J6" end="600" vehsPerHour="98.05748670689438"/>
  <flow id="JF89285" begin="540" fromJunction="J4" toJunction="J3" end="600" vehsPerHour="41.56716307115991"/>
  <flow id="JF89286" begin="540" fromJunction="J4" toJunction="J5" end="600" vehsPerHour="52.41246808543629"/>
  <flow id="JF89287" begin="540" fromJunction="J4" toJunction="J6" end="600" vehsPerHour="4.543147906394019"/>
  <flow id="JF89288" begin="540" fromJunction="J4" toJunction="J7" end="600" vehsPerHour="0.9707574423450515"/>
  <flow id="JF89289" begin="540" fromJunction="J5" toJunction="J0" end="600" vehsPerHour="30.860702758947507"/>
  <flow id="JF89290" begin="540" fromJunction="J5" toJunction="J3" end="600" vehsPerHour="11.188184474532418"/>
  <flow id="JF89291" begin="540" fromJunction="J5" toJunction="J4" end="600" vehsPerHour="4.125015565871614"/>
  <flow id="JF89292" begin="540" fromJunction="J5" toJunction="J7" end="600" vehsPerHour="20.155464104088225"/>
  <flow id="JF89293" begin="540" fromJunction="J6" toJunction="J0" end="600" vehsPerHour="21.191403440734543"/>
  <flow id="JF89294" begin="540" fromJunction="J6" toJunction="J4" end="600" vehsPerHour="39.91927485397404"/>
  <flow id="JF89295" begin="540" fromJunction="J6" toJunction="J7" end="600" vehsPerHour="64.95989348890694"/>
  <flow id="JF89296" begin="540" fromJunction="J7" toJunction="J3" end="600" vehsPerHour="18.23555279838035"/>
  <flow id="JF89297" begin="540" fromJunction="J7" toJunction="J4" end="600" vehsPerHour="36.53101227187986"/>
  <flow id="JF89298" begin="540" fromJunction="J7" toJunction="J5" end="600" vehsPerHour="67.55157161618291"/>
  <flow id="JF89299" begin="540" fromJunction="J7" toJunction="J6" end="600" vehsPerHour="14.029975361849027"/>
  <flow id="JF89300" begin="600" fromJunction="J3" toJunction="J0" end="660" vehsPerHour="66.21713131588389"/>
  <flow id="JF89301" begin="600" fromJunction="J3" toJunction="J4" end="660" vehsPerHour="69.18913813470415"/>
  <flow id="JF89302" begin="600" fromJunction="J3" toJunction="J5" end="660" vehsPerHour="53.05369458383573"/>
  <flow id="JF89303" begin="600" fromJunction="J3" toJunction="J6" end="660" vehsPerHour="133.59839113225166"/>
  <flow id="JF89304" begin="600" fromJunction="J3" toJunction="J7" end="660" vehsPerHour="4.761443501551094"/>
  <flow id="JF89305" begin="600" fromJunction="J4" toJunction="J0" end="660" vehsPerHour="56.97998033988964"/>
  <flow id="JF89306" begin="600" fromJunction="J4" toJunction="J5" end="660" vehsPerHour="13.56109583188334"/>
  <flow id="JF89307" begin="600" fromJunction="J4" toJunction="J6" end="660" vehsPerHour="21.424185260353454"/>
  <flow id="JF89308" begin="600" fromJunction="J4" toJunction="J7" end="660" vehsPerHour="47.70520499280551"/>
  <flow id="JF89309" begin="600" fromJunction="J5" toJunction="J0" end="660" vehsPerHour="61.424034613757506"/>
  <flow id="JF89310" begin="600" fromJunction="J5" toJunction="J3" end="660" vehsPerHour="22.553352665388356"/>
  <flow id="JF89311" begin="600" fromJunction="J5" toJunction="J6" end="660" vehsPerHour="20.568622686277372"/>
  <flow id="JF89312" begin="600" fromJunction="J5" toJunction="J7" end="660" vehsPerHour="1.0760099527231215"/>
  <flow id="JF89313" begin="600" fromJunction="J6" toJunction="J0" end="660" vehsPerHour="20.183814221203914"/>
  <flow id="JF89314" begin="600" fromJunction="J6" toJunction="J4" end="660" vehsPerHour="55.243219182266614"/>
  <flow id="JF89315" begin="600" fromJunction="J6" toJunction="J5" end="660" vehsPerHour="15.352788028245905"/>
  <flow id="JF89316" begin="600" fromJunction="J6" toJunction="J7" end="660" vehsPerHour="67.45938645675851"/>
  <flow id="JF89317" begin="600" fromJunction="J7" toJunction="J0" end="660" vehsPerHour="47.797381548888275"/>
  <flow id="JF89318" begin="600" fromJunction="J7" toJunction="J4" end="660" vehsPerHour="57.959709526301324"/>
  <flow id="JF89319" begin="600" fromJunction="J7" toJunction="J5" end="660" vehsPerHour="15.747178388178737"/>
  <flow id="JF89320" begin="600" fromJunction="J7" toJunction="J6" end="660" vehsPerHour="26.317798756211516"/>
  <flow id="JF89321" begin="660" fromJunction="J0" toJunction="J4" end="720" vehsPerHour="13.096152169377921"/>
  <flow id="JF89322" begin="660" fromJunction="J0" toJunction="J5" end="720" vehsPerHour="64.16301406868912"/>
  <flow id="JF89323" begin="660" fromJunction="J0" toJunction="J6" end="720" vehsPerHour="12.529407655078842"/>
  <flow id="JF89324" begin="660" fromJunction="J0" toJunction="J7" end="720" vehsPerHour="50.04644562023485"/>
  <flow id="JF89325" begin="660" fromJunction="J3" toJunction="J0" end="720" vehsPerHour="27.987088213492278"/>
  <flow id="JF89326" begin="660" fromJunction="J3" toJunction="J4" end="720" vehsPerHour="58.28105624083883"/>
  <flow id="JF89327" begin="660" fromJunction="J3" toJunction="J7" end="720" vehsPerHour="16.90896292994911"/>
  <flow id="JF89328" begin="660" fromJunction="J4" toJunction="J3" end="720" vehsPerHour="46.05973137777015"/>
  <flow id="JF89329" begin="660" fromJunction="J4" toJunction="J5" end="720" vehsPerHour="57.15157370652132"/>
  <flow id="JF89330" begin="660" fromJunction="J4" toJunction="J6" end="720" vehsPerHour="50.97543623819924"/>
  <flow id="JF89331" begin="660" fromJunction="J4" toJunction="J7" end="720" vehsPerHour="27.735546248553405"/>
  <flow id="JF89332" begin="660" fromJunction="J5" toJunction="J6" end="720" vehsPerHour="57.2010689344319"/>
  <flow id="JF89333" begin="660" fromJunction="J5" toJunction="J7" end="720" vehsPerHour="2.264211163363937"/>
  <flow id="JF89334" begin="660" fromJunction="J6" toJunction="J0" end="720" vehsPerHour="15.197068334990885"/>
  <flow id="JF89335" begin="660" fromJunction="J6" toJunction="J3" end="720" vehsPerHour="50.90173043062502"/>
  <flow id="JF89336" begin="660" fromJunction="J6" toJunction="J4" end="720" vehsPerHour="53.78421324507886"/>
  <flow id="JF89337" begin="660" fromJunction="J7" toJunction="J0" end="720" vehsPerHour="53.296845301150526"/>
  <flow id="JF89338" begin="660" fromJunction="J7" toJunction="J3" end="720" vehsPerHour="3.958553682892068"/>
  <flow id="JF89339" begin="660" fromJunction="J7" toJunction="J4" end="720" vehsPerHour="27.100614145388292"/>
  <flow id="JF89340" begin="660" fromJunction="J7" toJunction="J6" end="720" vehsPerHour="18.374903309275506"/>
  <flow id="JF89341" begin="720" fromJunction="J0" toJunction="J3" end="780" vehsPerHour="4.301375637360591"/>
  <flow id="JF89342" begin="720" fromJunction="J0" toJunction="J5" end="780" vehsPerHour="73.9784682912213"/>
  <flow id="JF89343" begin="720" fromJunction="J0" toJunction="J6" end="780" vehsPerHour="15.548089947107478"/>
  <flow id="JF89344" begin="720" fromJunction="J3" toJunction="J4" end="780" vehsPerHour="77.10908184889524"/>
  <flow id="JF89345" begin="720" fromJunction="J3" toJunction="J6" end="780" vehsPerHour="104.37714524323002"/>
  <flow id="JF89346" begin="720" fromJunction="J3" toJunction="J7" end="780" vehsPerHour="48.10127094517426"/>
  <flow id="JF89347" begin="720" fromJunction="J4" toJunction="J0" end="780" vehsPerHour="53.21779747458121"/>
  <flow id="JF89348" begin="720" fromJunction="J4" toJunction="J3" end="780" vehsPerHour="32.404596788014956"/>
  <flow id="JF89349" begin="720" fromJunction="J4" toJunction="J5" end="780" vehsPerHour="42.039011453367884"/>
  <flow id="JF89350" begin="720" fromJunction="J4" toJunction="J6" end="780" vehsPerHour="31.532074144586556"/>
  <flow id="JF89351" begin="720" fromJunction="J5" toJunction="J0" end="780" vehsPerHour="28.809006643277996"/>
  <flow id="JF89352" begin="720" fromJunction="J5" toJunction="J3" end="780" vehsPerHour="21.404976539390688"/>
  <flow id="JF89353" begin="720" fromJunction="J5" toJunction="J4" end="780" vehsPerHour="44.84381639972938"/>
  <flow id="JF89354" begin="720" fromJunction="J5" toJunction="J6" end="780" vehsPerHour="16.65665611566525"/>
  <flow id="JF89355" begin="720" fromJunction="J5" toJunction="J7" end="780" vehsPerHour="56.48680282007571"/>
  <flow id="JF89356" begin="720" fromJunction="J6" toJunction="J3" end="780" vehsPerHour="24.678993633187716"/>
  <flow id="JF89357" begin="720" fromJunction="J6" toJunction="J4" end="780" vehsPerHour="14.996066777101756"/>
  <flow id="JF89358" begin="720" fromJunction="J6" toJunction="J7" end="780" vehsPerHour="58.72788729299718"/>
  <flow id="JF89359" begin="720" fromJunction="J7" toJunction="J0" end="780" vehsPerHour="32.03009297281048"/>
  <flow id="JF89360" begin="720" fromJunction="J7" toJunction="J3" end="780" vehsPerHour="24.294159680058556"/>
  <flow id="JF89361" begin="720" fromJunction="J7" toJunction="J4" end="780" vehsPerHour="1.5192526810142024"/>