<?xml version="1.0" encoding="UTF-8"?>
<routes xmlns:xsi="http://www.w3.org/2001/XMLSchema-instance" xsi:noNamespaceSchemaLocation="http://sumo.dlr.de/xsd/routes_file.xsd">
  <flow id="JF76722" begin="0" fromJunction="J0" toJunction="J3" end="60" vehsPerHour="39.74353225111951"/>
  <flow id="JF76723" begin="0" fromJunction="J0" toJunction="J4" end="60" vehsPerHour="84.1185774991327"/>
  <flow id="JF76724" begin="0" fromJunction="J0" toJunction="J5" end="60" vehsPerHour="69.6844089544223"/>
  <flow id="JF76725" begin="0" fromJunction="J0" toJunction="J6" end="60" vehsPerHour="57.08710270811877"/>
  <flow id="JF76726" begin="0" fromJunction="J3" toJunction="J0" end="60" vehsPerHour="77.85590992930226"/>
  <flow id="JF76727" begin="0" fromJunction="J3" toJunction="J4" end="60" vehsPerHour="62.823675002405174"/>
  <flow id="JF76728" begin="0" fromJunction="J3" toJunction="J5" end="60" vehsPerHour="133.8708862937061"/>
  <flow id="JF76729" begin="0" fromJunction="J4" toJunction="J3" end="60" vehsPerHour="23.447608859832506"/>
  <flow id="JF76730" begin="0" fromJunction="J4" toJunction="J5" end="60" vehsPerHour="48.04961054404869"/>
  <flow id="JF76731" begin="0" fromJunction="J4" toJunction="J6" end="60" vehsPerHour="39.81996269563035"/>
  <flow id="JF76732" begin="0" fromJunction="J5" toJunction="J3" end="60" vehsPerHour="40.79266487241926"/>
  <flow id="JF76733" begin="0" fromJunction="J5" toJunction="J4" end="60" vehsPerHour="25.825566435236446"/>
  <flow id="JF76734" begin="0" fromJunction="J5" toJunction="J6" end="60" vehsPerHour="19.40454936174078"/>
  <flow id="JF76735" begin="0" fromJunction="J5" toJunction="J7" end="60" vehsPerHour="56.32636207720178"/>
  <flow id="JF76736" begin="0" fromJunction="J6" toJunction="J0" end="60" vehsPerHour="29.065041150362745"/>
  <flow id="JF76737" begin="0" fromJunction="J6" toJunction="J4" end="60" vehsPerHour="14.200972843350856"/>
  <flow id="JF76738" begin="0" fromJunction="J6" toJunction="J5" end="60" vehsPerHour="18.630834733711694"/>
  <flow id="JF76739" begin="0" fromJunction="J6" toJunction="J7" end="60" vehsPerHour="22.18262580418559"/>
  <flow id="JF76740" begin="0" fromJunction="J7" toJunction="J0" end="60" vehsPerHour="15.707514874077363"/>
  <flow id="JF76741" begin="0" fromJunction="J7" toJunction="J3" end="60" vehsPerHour="36.63205589206813"/>
  <flow id="JF76742" begin="0" fromJunction="J7" toJunction="J4" end="60" vehsPerHour="57.14675254583214"/>
  <flow id="JF76743" begin="0" fromJunction="J7" toJunction="J5" end="60" vehsPerHour="53.723346493998655"/>
  <flow id="JF76744" begin="0" fromJunction="J7" toJunction="J6" end="60" vehsPerHour="15.014861885249879"/>
  <flow id="JF76745" begin="60" fromJunction="J0" toJunction="J3" end="120" vehsPerHour="34.82069956238898"/>
  <flow id="JF76746" begin="60" fromJunction="J0" toJunction="J7" end="120" vehsPerHour="96.06171977381882"/>
  <flow id="JF76747" begin="60" fromJunction="J3" toJunction="J0" end="120" vehsPerHour="21.771814123462608"/>
  <flow id="JF76748" begin="60" fromJunction="J3" toJunction="J5" end="120" vehsPerHour="6.709871818048048"/>
  <flow id="JF76749" begin="60" fromJunction="J3" toJunction="J6" end="120" vehsPerHour="88.25471991290253"/>
  <flow id="JF76750" begin="60" fromJunction="J3" toJunction="J7" end="120" vehsPerHour="84.20973205874644"/>
  <flow id="JF76751" begin="60" fromJunction="J4" toJunction="J0" end="120" vehsPerHour="17.656226211779504"/>
  <flow id="JF76752" begin="60" fromJunction="J4" toJunction="J5" end="120" vehsPerHour="5.9439113190392385"/>
  <flow id="JF76753" begin="60" fromJunction="J4" toJunction="J7" end="120" vehsPerHour="67.945424669367"/>
  <flow id="JF76754" begin="60" fromJunction="J5" toJunction="J6" end="120" vehsPerHour="61.775931711705"/>
  <flow id="JF76755" begin="60" fromJunction="J5" toJunction="J7" end="120" vehsPerHour="46.37630242740747"/>
  <flow id="JF76756" begin="60" fromJunction="J6" toJunction="J3" end="120" vehsPerHour="18.37235844262651"/>
  <flow id="JF76757" begin="60" fromJunction="J6" toJunction="J4" end="120" vehsPerHour="52.11642968386222"/>
  <flow id="JF76758" begin="60" fromJunction="J6" toJunction="J5" end="120" vehsPerHour="16.178934507714324"/>
  <flow id="JF76759" begin="60" fromJunction="J6" toJunction="J7" end="120" vehsPerHour="43.127553021320146"/>
  <flow id="JF76760" begin="60" fromJunction="J7" toJunction="J0" end="120" vehsPerHour="28.269216295324878"/>
  <flow id="JF76761" begin="60" fromJunction="J7" toJunction="J6" end="120" vehsPerHour="9.434080540338293"/>
  <flow id="JF76762" begin="120" fromJunction="J0" toJunction="J3" end="180" vehsPerHour="131.21607790247702"/>
  <flow id="JF76763" begin="120" fromJunction="J3" toJunction="J4" end="180" vehsPerHour="67.11561497134866"/>
  <flow id="JF76764" begin="120" fromJunction="J3" toJunction="J5" end="180" vehsPerHour="121.34510744196042"/>
  <flow id="JF76765" begin="120" fromJunction="J3" toJunction="J7" end="180" vehsPerHour="127.32999200712543"/>
  <flow id="JF76766" begin="120" fromJunction="J4" toJunction="J0" end="180" vehsPerHour="10.03422839085195"/>
  <flow id="JF76767" begin="120" fromJunction="J4" toJunction="J3" end="180" vehsPerHour="58.94622945297842"/>
  <flow id="JF76768" begin="120" fromJunction="J4" toJunction="J5" end="180" vehsPerHour="30.82404744900043"/>
  <flow id="JF76769" begin="120" fromJunction="J4" toJunction="J6" end="180" vehsPerHour="37.5912640553907"/>
  <flow id="JF76770" begin="120" fromJunction="J5" toJunction="J0" end="180" vehsPerHour="58.887145493243935"/>
  <flow id="JF76771" begin="120" fromJunction="J5" toJunction="J3" end="180" vehsPerHour="15.642497283968222"/>
  <flow id="JF76772" begin="120" fromJunction="J5" toJunction="J4" end="180" vehsPerHour="61.443981401766834"/>
  <flow id="JF76773" begin="120" fromJunction="J5" toJunction="J6" end="180" vehsPerHour="22.00653376937622"/>
  <flow id="JF76774" begin="120" fromJunction="J5" toJunction="J7" end="180" vehsPerHour="40.345284794755756"/>
  <flow id="JF76775" begin="120" fromJunction="J6" toJunction="J0" end="180" vehsPerHour="2.1244534979790646"/>
  <flow id="JF76776" begin="120" fromJunction="J6" toJunction="J3" end="180" vehsPerHour="51.34609529529193"/>
  <flow id="JF76777" begin="120" fromJunction="J6" toJunction="J5" end="180" vehsPerHour="52.08472471642109"/>
  <flow id="JF76778" begin="120" fromJunction="J7" toJunction="J0" end="180" vehsPerHour="32.81088222386688"/>
  <flow id="JF76779" begin="120" fromJunction="J7" toJunction="J3" end="180" vehsPerHour="14.858004550110124"/>
  <flow id="JF76780" begin="180" fromJunction="J0" toJunction="J5" end="240" vehsPerHour="12.720921066080834"/>
  <flow id="JF76781" begin="180" fromJunction="J0" toJunction="J7" end="240" vehsPerHour="52.05988670304191"/>
  <flow id="JF76782" begin="180" fromJunction="J3" toJunction="J0" end="240" vehsPerHour="71.10729748107718"/>
  <flow id="JF76783" begin="180" fromJunction="J3" toJunction="J4" end="240" vehsPerHour="86.88816929648102"/>
  <flow id="JF76784" begin="180" fromJunction="J3" toJunction="J5" end="240" vehsPerHour="87.71260369906027"/>
  <flow id="JF76785" begin="180" fromJunction="J3" toJunction="J7" end="240" vehsPerHour="67.42690519242046"/>
  <flow id="JF76786" begin="180" fromJunction="J4" toJunction="J0" end="240" vehsPerHour="61.49053859347327"/>
  <flow id="JF76787" begin="180" fromJunction="J4" toJunction="J3" end="240" vehsPerHour="24.43167818144387"/>
  <flow id="JF76788" begin="180" fromJunction="J4" toJunction="J5" end="240" vehsPerHour="33.947803683736474"/>
  <flow id="JF76789" begin="180" fromJunction="J4" toJunction="J6" end="240" vehsPerHour="48.05589874541994"/>
  <flow id="JF76790" begin="180" fromJunction="J4" toJunction="J7" end="240" vehsPerHour="1.3621641027672517"/>
  <flow id="JF76791" begin="180" fromJunction="J5" toJunction="J3" end="240" vehsPerHour="32.5589223681379"/>
  <flow id="JF76792" begin="180" fromJunction="J5" toJunction="J4" end="240" vehsPerHour="52.46279027245941"/>
  <flow id="JF76793" begin="180" fromJunction="J5" toJunction="J6" end="240" vehsPerHour="2.9181446492740797"/>
  <flow id="JF76794" begin="180" fromJunction="J5" toJunction="J7" end="240" vehsPerHour="33.534838016362414"/>
  <flow id="JF76795" begin="180" fromJunction="J6" toJunction="J0" end="240" vehsPerHour="27.958808157778822"/>
  <flow id="JF76796" begin="180" fromJunction="J6" toJunction="J3" end="240" vehsPerHour="4.833560306375411"/>
  <flow id="JF76797" begin="180" fromJunction="J6" toJunction="J4" end="240" vehsPerHour="43.59246740375123"/>
  <flow id="JF76798" begin="180" fromJunction="J6" toJunction="J7" end="240" vehsPerHour="37.03813505183276"/>
  <flow id="JF76799" begin="180" fromJunction="J7" toJunction="J4" end="240" vehsPerHour="64.12006362727351"/>
  <flow id="JF76800" begin="180" fromJunction="J7" toJunction="J5" end="240" vehsPerHour="60.32805949241956"/>
  <flow id="JF76801" begin="180" fromJunction="J7" toJunction="J6" end="240" vehsPerHour="60.78975333922613"/>
  <flow id="JF76802" begin="240" fromJunction="J0" toJunction="J3" end="300" vehsPerHour="102.53306617233959"/>
  <flow id="JF76803" begin="240" fromJunction="J0" toJunction="J4" end="300" vehsPerHour="52.487381946112095"/>
  <flow id="JF76804" begin="240" fromJunction="J0" toJunction="J7" end="300" vehsPerHour="83.15809108481932"/>
  <flow id="JF76805" begin="240" fromJunction="J3" toJunction="J0" end="300" vehsPerHour="135.19582643914922"/>
  <flow id="JF76806" begin="240" fromJunction="J3" toJunction="J4" end="300" vehsPerHour="1.4521779284998353"/>
  <flow id="JF76807" begin="240" fromJunction="J3" toJunction="J6" end="300" vehsPerHour="38.58100645700986"/>
  <flow id="JF76808" begin="240" fromJunction="J3" toJunction="J7" end="300" vehsPerHour="119.66543121775246"/>
  <flow id="JF76809" begin="240" fromJunction="J4" toJunction="J0" end="300" vehsPerHour="0.35071948097149336"/>
  <flow id="JF76810" begin="240" fromJunction="J4" toJunction="J3" end="300" vehsPerHour="60.702823128273735"/>
  <flow id="JF76811" begin="240" fromJunction="J4" toJunction="J7" end="300" vehsPerHour="64.22627662118444"/>
  <flow id="JF76812" begin="240" fromJunction="J5" toJunction="J3" end="300" vehsPerHour="8.310729097282776"/>
  <flow id="JF76813" begin="240" fromJunction="J5" toJunction="J4" end="300" vehsPerHour="18.8890105488378"/>
  <flow id="JF76814" begin="240" fromJunction="J5" toJunction="J6" end="300" vehsPerHour="20.186567917001824"/>
  <flow id="JF76815" begin="240" fromJunction="J6" toJunction="J0" end="300" vehsPerHour="22.22940997755006"/>
  <flow id="JF76816" begin="240" fromJunction="J6" toJunction="J3" end="300" vehsPerHour="2.7302989485603546"/>
  <flow id="JF76817" begin="240" fromJunction="J6" toJunction="J4" end="300" vehsPerHour="2.5394254453231584"/>
  <flow id="JF76818" begin="240" fromJunction="J6" toJunction="J7" end="300" vehsPerHour="67.96613455700071"/>
  <flow id="JF76819" begin="240" fromJunction="J7" toJunction="J0" end="300" vehsPerHour="30.167663220657225"/>
  <flow id="JF76820" begin="240" fromJunction="J7" toJunction="J3" end="300" vehsPerHour="1.0430706839959372"/>
  <flow id="JF76821" begin="240" fromJunction="J7" toJunction="J4" end="300" vehsPerHour="42.30580623081252"/>
  <flow id="JF76822" begin="240" fromJunction="J7" toJunction="J6" end="300" vehsPerHour="8.107202408492578"/>
  <flow id="JF76823" begin="300" fromJunction="J0" toJunction="J3" end="360" vehsPerHour="123.24071013105964"/>
  <flow id="JF76824" begin="300" fromJunction="J0" toJunction="J6" end="360" vehsPerHour="93.96660790250677"/>
  <flow id="JF76825" begin="300" fromJunction="J0" toJunction="J7" end="360" vehsPerHour="109.34956701133177"/>
  <flow id="JF76826" begin="300" fromJunction="J3" toJunction="J0" end="360" vehsPerHour="114.28931839062173"/>
  <flow id="JF76827" begin="300" fromJunction="J3" toJunction="J4" end="360" vehsPerHour="54.79963612780209"/>
  <flow id="JF76828" begin="300" fromJunction="J3" toJunction="J5" end="360" vehsPerHour="110.12648852913834"/>
  <flow id="JF76829" begin="300" fromJunction="J3" toJunction="J6" end="360" vehsPerHour="67.2410399352959"/>
  <flow id="JF76830" begin="300" fromJunction="J4" toJunction="J0" end="360" vehsPerHour="60.07640160511429"/>
  <flow id="JF76831" begin="300" fromJunction="J4" toJunction="J3" end="360" vehsPerHour="53.37071826407137"/>
  <flow id="JF76832" begin="300" fromJunction="J4" toJunction="J5" end="360" vehsPerHour="27.460606081474577"/>
  <flow id="JF76833" begin="300" fromJunction="J5" toJunction="J0" end="360" vehsPerHour="57.313596622604365"/>
  <flow id="JF76834" begin="300" fromJunction="J5" toJunction="J3" end="360" vehsPerHour="18.94304477209774"/>
  <flow id="JF76835" begin="300" fromJunction="J5" toJunction="J4" end="360" vehsPerHour="55.50894335560737"/>
  <flow id="JF76836" begin="300" fromJunction="J5" toJunction="J6" end="360" vehsPerHour="52.73397847314735"/>
  <flow id="JF76837" begin="300" fromJunction="J5" toJunction="J7" end="360" vehsPerHour="25.2166928836019"/>
  <flow id="JF76838" begin="300" fromJunction="J6" toJunction="J0" end="360" vehsPerHour="2.893738140374162"/>
  <flow id="JF76839" begin="300" fromJunction="J6" toJunction="J3" end="360" vehsPerHour="38.21232962329302"/>
  <flow id="JF76840" begin="300" fromJunction="J6" toJunction="J4" end="360" vehsPerHour="18.855951507892502"/>
  <flow id="JF76841" begin="300" fromJunction="J6" toJunction="J5" end="360" vehsPerHour="29.79171355593154"/>
  <flow id="JF76842" begin="300" fromJunction="J6" toJunction="J7" end="360" vehsPerHour="14.098280114603003"/>
  <flow id="JF76843" begin="300" fromJunction="J7" toJunction="J0" end="360" vehsPerHour="36.76528970503645"/>
  <flow id="JF76844" begin="300" fromJunction="J7" toJunction="J3" end="360" vehsPerHour="5.368049999518308"/>
  <flow id="JF76845" begin="300" fromJunction="J7" toJunction="J4" end="360" vehsPerHour="19.847479449111088"/>
  <flow id="JF76846" begin="300" fromJunction="J7" toJunction="J5" end="360" vehsPerHour="5.182405076222237"/>
  <flow id="JF76847" begin="300" fromJunction="J7" toJunction="J6" end="360" vehsPerHour="27.996073144719464"/>
  <flow id="JF76848" begin="360" fromJunction="J0" toJunction="J3" end="420" vehsPerHour="133.45519376960584"/>
  <flow id="JF76849" begin="360" fromJunction="J0" toJunction="J4" end="420" vehsPerHour="120.84917852102095"/>
  <flow id="JF76850" begin="360" fromJunction="J0" toJunction="J5" end="420" vehsPerHour="16.36461780501921"/>
  <flow id="JF76851" begin="360" fromJunction="J0" toJunction="J6" end="420" vehsPerHour="35.07569970328556"/>
  <flow id="JF76852" begin="360" fromJunction="J0" toJunction="J7" end="420" vehsPerHour="60.18719081728763"/>
  <flow id="JF76853" begin="360" fromJunction="J3" toJunction="J5" end="420" vehsPerHour="132.17684518328363"/>
  <flow id="JF76854" begin="360" fromJunction="J3" toJunction="J6" end="420" vehsPerHour="77.38955228807093"/>
  <flow id="JF76855" begin="360" fromJunction="J3" toJunction="J7" end="420" vehsPerHour="77.45272966589214"/>
  <flow id="JF76856" begin="360" fromJunction="J4" toJunction="J0" end="420" vehsPerHour="63.10122475239811"/>
  <flow id="JF76857" begin="360" fromJunction="J4" toJunction="J5" end="420" vehsPerHour="30.89753639554197"/>
  <flow id="JF76858" begin="360" fromJunction="J4" toJunction="J6" end="420" vehsPerHour="1.0040798249456506"/>
  <flow id="JF76859" begin="360" fromJunction="J4" toJunction="J7" end="420" vehsPerHour="23.131473101094677"/>
  <flow id="JF76860" begin="360" fromJunction="J5" toJunction="J0" end="420" vehsPerHour="4.261470031326203"/>
  <flow id="JF76861" begin="360" fromJunction="J5" toJunction="J4" end="420" vehsPerHour="42.51242581524356"/>
  <flow id="JF76862" begin="360" fromJunction="J5" toJunction="J6" end="420" vehsPerHour="56.72198823912338"/>
  <flow id="JF76863" begin="360" fromJunction="J5" toJunction="J7" end="420" vehsPerHour="42.497005555709435"/>
  <flow id="JF76864" begin="360" fromJunction="J6" toJunction="J3" end="420" vehsPerHour="53.262456995464184"/>
  <flow id="JF76865" begin="360" fromJunction="J6" toJunction="J7" end="420" vehsPerHour="26.047456009356342"/>
  <flow id="JF76866" begin="360" fromJunction="J7" toJunction="J0" end="420" vehsPerHour="21.384553431171877"/>
  <flow id="JF76867" begin="360" fromJunction="J7" toJunction="J3" end="420" vehsPerHour="52.727649586703855"/>
  <flow id="JF76868" begin="360" fromJunction="J7" toJunction="J4" end="420" vehsPerHour="2.1750244228991833"/>
  <flow id="JF76869" begin="360" fromJunction="J7" toJunction="J5" end="420" vehsPerHour="19.618725221196115"/>
  <flow id="JF76870" begin="360" fromJunction="J7" toJunction="J6" end="420" vehsPerHour="31.18397282531422"/>
  <flow id="JF76871" begin="420" fromJunction="J0" toJunction="J3" end="480" vehsPerHour="41.299804590544646"/>
  <flow id="JF76872" begin="420" fromJunction="J0" toJunction="J5" end="480" vehsPerHour="87.35174981998632"/>
  <flow id="JF76873" begin="420" fromJunction="J0" toJunction="J6" end="480" vehsPerHour="111.8416957836115"/>
  <flow id="JF76874" begin="420" fromJunction="J0" toJunction="J7" end="480" vehsPerHour="92.91289179332873"/>
  <flow id="JF76875" begin="420" fromJunction="J3" toJunction="J0" end="480" vehsPerHour="83.14903426560427"/>
  <flow id="JF76876" begin="420" fromJunction="J3" toJunction="J4" end="480" vehsPerHour="54.887973248658774"/>
  <flow id="JF76877" begin="420" fromJunction="J3" toJunction="J5" end="480" vehsPerHour="127.0348163793887"/>
  <flow id="JF76878" begin="420" fromJunction="J3" toJunction="J6" end="480" vehsPerHour="122.12573542903452"/>
  <flow id="JF76879" begin="420" fromJunction="J3" toJunction="J7" end="480" vehsPerHour="99.87093242848606"/>
  <flow id="JF76880" begin="420" fromJunction="J4" toJunction="J0" end="480" vehsPerHour="22.697978049992017"/>
  <flow id="JF76881" begin="420" fromJunction="J4" toJunction="J3" end="480" vehsPerHour="30.40115849346587"/>
  <flow id="JF76882" begin="420" fromJunction="J5" toJunction="J3" end="480" vehsPerHour="62.84952518979445"/>
  <flow id="JF76883" begin="420" fromJunction="J5" toJunction="J7" end="480" vehsPerHour="58.38861316965402"/>
  <flow id="JF76884" begin="420" fromJunction="J6" toJunction="J0" end="480" vehsPerHour="54.46901347105698"/>
  <flow id="JF76885" begin="420" fromJunction="J6" toJunction="J3" end="480" vehsPerHour="68.35034727913714"/>
  <flow id="JF76886" begin="420" fromJunction="J6" toJunction="J4" end="480" vehsPerHour="58.835788439449225"/>
  <flow id="JF76887" begin="420" fromJunction="J6" toJunction="J7" end="480" vehsPerHour="67.7667628485916"/>
  <flow id="JF76888" begin="420" fromJunction="J7" toJunction="J0" end="480" vehsPerHour="7.418258608525807"/>
  <flow id="JF76889" begin="420" fromJunction="J7" toJunction="J3" end="480" vehsPerHour="46.474647166790376"/>
  <flow id="JF76890" begin="420" fromJunction="J7" toJunction="J4" end="480" vehsPerHour="30.483683026607405"/>
  <flow id="JF76891" begin="420" fromJunction="J7" toJunction="J5" end="480" vehsPerHour="31.637352654972126"/>
  <flow id="JF76892" begin="420" fromJunction="J7" toJunction="J6" end="480" vehsPerHour="41.722786548394986"/>
  <flow id="JF76893" begin="480" fromJunction="J0" toJunction="J3" end="540" vehsPerHour="2.745884052543398"/>
  <flow id="JF76894" begin="480" fromJunction="J0" toJunction="J4" end="540" vehsPerHour="124.57788751915417"/>
  <flow id="JF76895" begin="480" fromJunction="J0" toJunction="J6" end="540" vehsPerHour="131.05204386219015"/>
  <flow id="JF76896" begin="480" fromJunction="J0" toJunction="J7" end="540" vehsPerHour="50.651451696932824"/>
  <flow id="JF76897" begin="480" fromJunction="J3" toJunction="J0" end="540" vehsPerHour="88.22711344042554"/>
  <flow id="JF76898" begin="480" fromJunction="J3" toJunction="J4" end="540" vehsPerHour="90.74032117901702"/>
  <flow id="JF76899" begin="480" fromJunction="J3" toJunction="J5" end="540" vehsPerHour="36.872581144369086"/>
  <flow id="JF76900" begin="480" fromJunction="J3" toJunction="J7" end="540" vehsPerHour="37.74387275515297"/>
  <flow id="JF76901" begin="480" fromJunction="J4" toJunction="J0" end="540" vehsPerHour="35.8532898235265"/>
  <flow id="JF76902" begin="480" fromJunction="J4" toJunction="J5" end="540" vehsPerHour="37.541617041336664"/>
  <flow id="JF76903" begin="480" fromJunction="J4" toJunction="J6" end="540" vehsPerHour="39.85073160878768"/>
  <flow id="JF76904" begin="480" fromJunction="J4" toJunction="J7" end="540" vehsPerHour="55.91143109477713"/>
  <flow id="JF76905" begin="480" fromJunction="J5" toJunction="J0" end="540" vehsPerHour="32.052944758045605"/>
  <flow id="JF76906" begin="480" fromJunction="J5" toJunction="J6" end="540" vehsPerHour="47.25285585232744"/>
  <flow id="JF76907" begin="480" fromJunction="J6" toJunction="J0" end="540" vehsPerHour="61.683333953631184"/>
  <flow id="JF76908" begin="480" fromJunction="J6" toJunction="J4" end="540" vehsPerHour="67.72302289490958"/>
  <flow id="JF76909" begin="480" fromJunction="J6" toJunction="J5" end="540" vehsPerHour="59.102033106736265"/>
  <flow id="JF76910" begin="480" fromJunction="J7" toJunction="J0" end="540" vehsPerHour="13.09612290056231"/>
  <flow id="JF76911" begin="480" fromJunction="J7" toJunction="J3" end="540" vehsPerHour="18.847784070490466"/>
  <flow id="JF76912" begin="480" fromJunction="J7" toJunction="J5" end="540" vehsPerHour="64.78516714084071"/>
  <flow id="JF76913" begin="480" fromJunction="J7" toJunction="J6" end="540" vehsPerHour="56.370396583947525"/>
  <flow id="JF76914" begin="540" fromJunction="J0" toJunction="J3" end="600" vehsPerHour="13.237052210246143"/>
  <flow id="JF76915" begin="540" fromJunction="J0" toJunction="J4" end="600" vehsPerHour="79.16884449200572"/>
  <flow id="JF76916" begin="540" fromJunction="J0" toJunction="J5" end="600" vehsPerHour="34.70477520909081"/>
  <flow id="JF76917" begin="540" fromJunction="J0" toJunction="J6" end="600" vehsPerHour="31.609811717276873"/>
  <flow id="JF76918" begin="540" fromJunction="J0" toJunction="J7" end="600" vehsPerHour="26.741110813354425"/>
  <flow id="JF76919" begin="540" fromJunction="J3" toJunction="J0" end="600" vehsPerHour="90.72843218180923"/>
  <flow id="JF76920" begin="540" fromJunction="J3" toJunction="J4" end="600" vehsPerHour="106.43055805194338"/>
  <flow id="JF76921" begin="540" fromJunction="J3" toJunction="J5" end="600" vehsPerHour="77.35349081096578"/>
  <flow id="JF76922" begin="540" fromJunction="J3" toJunction="J6" end="600" vehsPerHour="105.47459232393254"/>
  <flow id="JF76923" begin="540" fromJunction="J3" toJunction="J7" end="600" vehsPerHour="2.9679698685737566"/>
  <flow id="JF76924" begin="540" fromJunction="J4" toJunction="J0" end="600" vehsPerHour="21.21204240244406"/>
  <flow id="JF76925" begin="540" fromJunction="J4" toJunction="J3" end="600" vehsPerHour="46.930895332775876"/>
  <flow id="JF76926" begin="540" fromJunction="J4" toJunction="J6" end="600" vehsPerHour="39.44278161977549"/>
  <flow id="JF76927" begin="540" fromJunction="J5" toJunction="J0" end="600" vehsPerHour="53.13020192133486"/>
  <flow id="JF76928" begin="540" fromJunction="J5" toJunction="J3" end="600" vehsPerHour="35.32816676464007"/>
  <flow id="JF76929" begin="540" fromJunction="J5" toJunction="J6" end="600" vehsPerHour="58.618991631551204"/>
  <flow id="JF76930" begin="540" fromJunction="J6" toJunction="J0" end="600" vehsPerHour="22.24567826954631"/>
  <flow id="JF76931" begin="540" fromJunction="J6" toJunction="J3" end="600" vehsPerHour="64.99736534931947"/>
  <flow id="JF76932" begin="540" fromJunction="J6" toJunction="J4" end="600" vehsPerHour="66.02174849792193"/>
  <flow id="JF76933" begin="540" fromJunction="J6" toJunction="J5" end="600" vehsPerHour="44.19087867706427"/>
  <flow id="JF76934" begin="540" fromJunction="J6" toJunction="J7" end="600" vehsPerHour="24.311518462606575"/>
  <flow id="JF76935" begin="540" fromJunction="J7" toJunction="J4" end="600" vehsPerHour="57.12205703625189"/>
  <flow id="JF76936" begin="540" fromJunction="J7" toJunction="J5" end="600" vehsPerHour="32.49869379784367"/>
  <flow id="JF76937" begin="540" fromJunction="J7" toJunction="J6" end="600" vehsPerHour="63.51847856549502"/>
  <flow id="JF76938" begin="600" fromJunction="J0" toJunction="J3" end="660" vehsPerHour="99.66604773447591"/>
  <flow id="JF76939" begin="600" fromJunction="J0" toJunction="J4" end="660" vehsPerHour="18.88439795529613"/>
  <flow id="JF76940" begin="600" fromJunction="J0" toJunction="J5" end="660" vehsPerHour="65.20495675776837"/>
  <flow id="JF76941" begin="600" fromJunction="J0" toJunction="J6" end="660" vehsPerHour="59.395894136293464"/>
  <flow id="JF76942" begin="600" fromJunction="J0" toJunction="J7" end="660" vehsPerHour="110.1254280826695"/>
  <flow id="JF76943" begin="600" fromJunction="J3" toJunction="J4" end="660" vehsPerHour="19.286687591333806"/>
  <flow id="JF76944" begin="600" fromJunction="J3" toJunction="J6" end="660" vehsPerHour="92.55416954287631"/>
  <flow id="JF76945" begin="600" fromJunction="J3" toJunction="J7" end="660" vehsPerHour="17.432904851241922"/>
  <flow id="JF76946" begin="600" fromJunction="J4" toJunction="J0" end="660" vehsPerHour="27.60512604440081"/>
  <flow id="JF76947" begin="600" fromJunction="J4" toJunction="J3" end="660" vehsPerHour="55.53940193931879"/>
  <flow id="JF76948" begin="600" fromJunction="J4" toJunction="J5" end="660" vehsPerHour="53.86491594325627"/>
  <flow id="JF76949" begin="600" fromJunction="J4" toJunction="J6" end="660" vehsPerHour="35.44278780672241"/>
  <flow id="JF76950" begin="600" fromJunction="J4" toJunction="J7" end="660" vehsPerHour="43.05848119591863"/>
  <flow id="JF76951" begin="600" fromJunction="J5" toJunction="J4" end="660" vehsPerHour="21.799781245823052"/>
  <flow id="JF76952" begin="600" fromJunction="J5" toJunction="J7" end="660" vehsPerHour="28.206559095794933"/>
  <flow id="JF76953" begin="600" fromJunction="J6" toJunction="J0" end="660" vehsPerHour="36.85260712410866"/>
  <flow id="JF76954" begin="600" fromJunction="J6" toJunction="J3" end="660" vehsPerHour="55.526462670251505"/>
  <flow id="JF76955" begin="600" fromJunction="J6" toJunction="J5" end="660" vehsPerHour="24.006220322749297"/>
  <flow id="JF76956" begin="600" fromJunction="J7" toJunction="J0" end="660" vehsPerHour="64.0373392193554"/>
  <flow id="JF76957" begin="600" fromJunction="J7" toJunction="J3" end="660" vehsPerHour="23.935174668169346"/>
  <flow id="JF76958" begin="600" fromJunction="J7" toJunction="J4" end="660" vehsPerHour="35.837048832021054"/>
  <flow id="JF76959" begin="660" fromJunction="J0" toJunction="J3" end="720" vehsPerHour="82.44497970306442"/>
  <flow id="JF76960" begin="660" fromJunction="J0" toJunction="J4" end="720" vehsPerHour="61.9529183038083"/>
  <flow id="JF76961" begin="660" fromJunction="J0" toJunction="J5" end="720" vehsPerHour="20.982716791729082"/>
  <flow id="JF76962" begin="660" fromJunction="J0" toJunction="J7" end="720" vehsPerHour="35.809724872340446"/>
  <flow id="JF76963" begin="660" fromJunction="J3" toJunction="J0" end="720" vehsPerHour="18.317265920840473"/>
  <flow id="JF76964" begin="660" fromJunction="J3" toJunction="J5" end="720" vehsPerHour="9.27916539736127"/>
  <flow id="JF76965" begin="660" fromJunction="J3" toJunction="J6" end="720" vehsPerHour="113.73097811078564"/>
  <flow id="JF76966" begin="660" fromJunction="J4" toJunction="J5" end="720" vehsPerHour="33.61631910625547"/>
  <flow id="JF76967" begin="660" fromJunction="J4" toJunction="J6" end="720" vehsPerHour="32.47966959717703"/>
  <flow id="JF76968" begin="660" fromJunction="J4" toJunction="J7" end="720" vehsPerHour="41.57121286697398"/>
  <flow id="JF76969" begin="660" fromJunction="J5" toJunction="J0" end="720" vehsPerHour="4.5243066442127535"/>
  <flow id="JF76970" begin="660" fromJunction="J5" toJunction="J3" end="720" vehsPerHour="25.90336235721359"/>
  <flow id="JF76971" begin="660" fromJunction="J5" toJunction="J4" end="720" vehsPerHour="67.54680531510459"/>
  <flow id="JF76972" begin="660" fromJunction="J5" toJunction="J7" end="720" vehsPerHour="30.094696949801843"/>
  <flow id="JF76973" begin="660" fromJunction="J6" toJunction="J0" end="720" vehsPerHour="9.583141174786817"/>
  <flow id="JF76974" begin="660" fromJunction="J6" toJunction="J3" end="720" vehsPerHour="18.731792203455537"/>
  <flow id="JF76975" begin="660" fromJunction="J6" toJunction="J4" end="720" vehsPerHour="58.653485567125244"/>
  <flow id="JF76976" begin="660" fromJunction="J7" toJunction="J0" end="720" vehsPerHour="18.840610876043403"/>
  <flow id="JF76977" begin="660" fromJunction="J7" toJunction="J4" end="720" vehsPerHour="30.685223184975428"/>
  <flow id="JF76978" begin="660" fromJunction="J7" toJunction="J5" end="720" vehsPerHour="0.05073569928246191"/>
  <flow id="JF76979" begin="720" fromJunction="J0" toJunction="J3" end="780" vehsPerHour="26.49116837963339"/>
  <flow id="JF76980" begin="720" fromJunction="J0" toJunction="J4" end="780" vehsPerHour="63.42555631570105"/>
  <flow id="JF76981" begin="720" fromJunction="J0" toJunction="J6" end="780" vehsPerHour="18.983935553926933"/>
  <flow id="JF76982" begin="720" fromJunction="J3" toJunction="J0" end="780" vehsPerHour="37.3095332479288"/>
  <flow id="JF76983" begin="720" fromJunction="J3" toJunction="J5" end="780" vehsPerHour="67.83013023108464"/>
  <flow id="JF76984" begin="720" fromJunction="J3" toJunction="J6" end="780" vehsPerHour="21.51030133445905"/>
  <flow id="JF76985" begin="720" fromJunction="J3" toJunction="J7" end="780" vehsPerHour="6.876024952478198"/>
  <flow id="JF76986" begin="720" fromJunction="J4" toJunction="J0" end="780" vehsPerHour="10.15421980414233"/>
  <flow id="JF76987" begin="720" fromJunction="J4" toJunction="J6" end="780" vehsPerHour="28.916509525050202"/>
  <flow id="JF76988" begin="720" fromJunction="J4" toJunction="J7" end="780" vehsPerHour="65.52350960958641"/>
  <flow id="JF76989" begin="720" fromJunction="J5" toJunction="J0" end="780" vehsPerHour="16.87412280778203"/>