<?xml version="1.0" encoding="UTF-8"?>
<routes xmlns:xsi="http://www.w3.org/2001/XMLSchema-instance" xsi:noNamespaceSchemaLocation="http://sumo.dlr.de/xsd/routes_file.xsd">
  <flow id="JF90896" begin="0" fromJunction="J0" toJunction="J4" end="60" vehsPerHour="44.60774726863101"/>
  <flow id="JF90897" begin="0" fromJunction="J0" toJunction="J6" end="60" vehsPerHour="87.04364025609738"/>
  <flow id="JF90898" begin="0" fromJunction="J3" toJunction="J0" end="60" vehsPerHour="19.22477473664176"/>
  <flow id="JF90899" begin="0" fromJunction="J3" toJunction="J5" end="60" vehsPerHour="106.68952539005879"/>
  <flow id="JF90900" begin="0" fromJunction="J3" toJunction="J6" end="60" vehsPerHour="114.68933182622739"/>
  <flow id="JF90901" begin="0" fromJunction="J3" toJunction="J7" end="60" vehsPerHour="125.69012980069519"/>
  <flow id="JF90902" begin="0" fromJunction="J4" toJunction="J0" end="60" vehsPerHour="68.22368668910765"/>
  <flow id="JF90903" begin="0" fromJunction="J4" toJunction="J5" end="60" vehsPerHour="34.650731809699245"/>
  <flow id="JF90904" begin="0" fromJunction="J4" toJunction="J6" end="60" vehsPerHour="17.155162015292305"/>
  <flow id="JF90905" begin="0" fromJunction="J5" toJunction="J0" end="60" vehsPerHour="35.88003573676901"/>
  <flow id="JF90906" begin="0" fromJunction="J5" toJunction="J3" end="60" vehsPerHour="12.26459762682517"/>
  <flow id="JF90907" begin="0" fromJunction="J5" toJunction="J6" end="60" vehsPerHour="30.797335606469886"/>
  <flow id="JF90908" begin="0" fromJunction="J5" toJunction="J7" end="60" vehsPerHour="34.25526114203264"/>
  <flow id="JF90909" begin="0" fromJunction="J6" toJunction="J0" end="60" vehsPerHour="47.684691238485286"/>
  <flow id="JF90910" begin="0" fromJunction="J6" toJunction="J3" end="60" vehsPerHour="5.324230437944958"/>
  <flow id="JF90911" begin="0" fromJunction="J6" toJunction="J5" end="60" vehsPerHour="61.21002508579667"/>
  <flow id="JF90912" begin="0" fromJunction="J6" toJunction="J7" end="60" vehsPerHour="56.546901748808565"/>
  <flow id="JF90913" begin="0" fromJunction="J7" toJunction="J0" end="60" vehsPerHour="27.68622282873883"/>
  <flow id="JF90914" begin="0" fromJunction="J7" toJunction="J3" end="60" vehsPerHour="31.828585831101787"/>
  <flow id="JF90915" begin="0" fromJunction="J7" toJunction="J6" end="60" vehsPerHour="38.69081285230621"/>
  <flow id="JF90916" begin="60" fromJunction="J0" toJunction="J4" end="120" vehsPerHour="97.19985929922463"/>
  <flow id="JF90917" begin="60" fromJunction="J0" toJunction="J5" end="120" vehsPerHour="31.50764825311631"/>
  <flow id="JF90918" begin="60" fromJunction="J0" toJunction="J7" end="120" vehsPerHour="23.3979516689266"/>
  <flow id="JF90919" begin="60" fromJunction="J3" toJunction="J0" end="120" vehsPerHour="46.109541474907985"/>
  <flow id="JF90920" begin="60" fromJunction="J3" toJunction="J4" end="120" vehsPerHour="119.42873294893174"/>
  <flow id="JF90921" begin="60" fromJunction="J3" toJunction="J5" end="120" vehsPerHour="93.41304132168874"/>
  <flow id="JF90922" begin="60" fromJunction="J4" toJunction="J0" end="120" vehsPerHour="29.789596619727373"/>
  <flow id="JF90923" begin="60" fromJunction="J4" toJunction="J5" end="120" vehsPerHour="59.554680083204715"/>
  <flow id="JF90924" begin="60" fromJunction="J4" toJunction="J6" end="120" vehsPerHour="11.300684304375524"/>
  <flow id="JF90925" begin="60" fromJunction="J4" toJunction="J7" end="120" vehsPerHour="67.73962942749904"/>
  <flow id="JF90926" begin="60" fromJunction="J5" toJunction="J0" end="120" vehsPerHour="35.08409998750999"/>
  <flow id="JF90927" begin="60" fromJunction="J5" toJunction="J3" end="120" vehsPerHour="23.91332935400758"/>
  <flow id="JF90928" begin="60" fromJunction="J5" toJunction="J4" end="120" vehsPerHour="40.016753601930084"/>
  <flow id="JF90929" begin="60" fromJunction="J5" toJunction="J6" end="120" vehsPerHour="23.345412127977497"/>
  <flow id="JF90930" begin="60" fromJunction="J6" toJunction="J3" end="120" vehsPerHour="18.70932339075319"/>
  <flow id="JF90931" begin="60" fromJunction="J6" toJunction="J4" end="120" vehsPerHour="3.03890118207585"/>
  <flow id="JF90932" begin="60" fromJunction="J6" toJunction="J5" end="120" vehsPerHour="41.683623723381004"/>
  <flow id="JF90933" begin="60" fromJunction="J6" toJunction="J7" end="120" vehsPerHour="2.6032436940324817"/>
  <flow id="JF90934" begin="60" fromJunction="J7" toJunction="J0" end="120" vehsPerHour="65.92127317373408"/>
  <flow id="JF90935" begin="60" fromJunction="J7" toJunction="J3" end="120" vehsPerHour="68.0168642146971"/>
  <flow id="JF90936" begin="60" fromJunction="J7" toJunction="J4" end="120" vehsPerHour="61.062513908765744"/>
  <flow id="JF90937" begin="60" fromJunction="J7" toJunction="J6" end="120" vehsPerHour="37.917255921295805"/>
  <flow id="JF90938" begin="120" fromJunction="J0" toJunction="J3" end="180" vehsPerHour="22.821230957407305"/>
  <flow id="JF90939" begin="120" fromJunction="J0" toJunction="J4" end="180" vehsPerHour="26.80970474322085"/>
  <flow id="JF90940" begin="120" fromJunction="J0" toJunction="J5" end="180" vehsPerHour="29.559825523775896"/>
  <flow id="JF90941" begin="120" fromJunction="J0" toJunction="J6" end="180" vehsPerHour="49.783301827295766"/>
  <flow id="JF90942" begin="120" fromJunction="J0" toJunction="J7" end="180" vehsPerHour="27.528679120348784"/>
  <flow id="JF90943" begin="120" fromJunction="J3" toJunction="J0" end="180" vehsPerHour="134.2061616646556"/>
  <flow id="JF90944" begin="120" fromJunction="J3" toJunction="J4" end="180" vehsPerHour="43.6274840311038"/>
  <flow id="JF90945" begin="120" fromJunction="J3" toJunction="J5" end="180" vehsPerHour="40.33543340455077"/>
  <flow id="JF90946" begin="120" fromJunction="J3" toJunction="J6" end="180" vehsPerHour="16.353999441199193"/>
  <flow id="JF90947" begin="120" fromJunction="J3" toJunction="J7" end="180" vehsPerHour="52.35741830971764"/>
  <flow id="JF90948" begin="120" fromJunction="J4" toJunction="J0" end="180" vehsPerHour="61.38776029397758"/>
  <flow id="JF90949" begin="120" fromJunction="J4" toJunction="J6" end="180" vehsPerHour="27.54137965051188"/>
  <flow id="JF90950" begin="120" fromJunction="J4" toJunction="J7" end="180" vehsPerHour="17.944620612218568"/>
  <flow id="JF90951" begin="120" fromJunction="J5" toJunction="J0" end="180" vehsPerHour="53.60092384301164"/>
  <flow id="JF90952" begin="120" fromJunction="J5" toJunction="J3" end="180" vehsPerHour="52.802956272622616"/>
  <flow id="JF90953" begin="120" fromJunction="J5" toJunction="J4" end="180" vehsPerHour="42.29710408846559"/>
  <flow id="JF90954" begin="120" fromJunction="J5" toJunction="J6" end="180" vehsPerHour="65.38641945810524"/>
  <flow id="JF90955" begin="120" fromJunction="J5" toJunction="J7" end="180" vehsPerHour="38.467971219755476"/>
  <flow id="JF90956" begin="120" fromJunction="J6" toJunction="J0" end="180" vehsPerHour="53.51035450471291"/>
  <flow id="JF90957" begin="120" fromJunction="J6" toJunction="J3" end="180" vehsPerHour="5.7809379764239965"/>
  <flow id="JF90958" begin="120" fromJunction="J6" toJunction="J4" end="180" vehsPerHour="45.306698667307195"/>
  <flow id="JF90959" begin="120" fromJunction="J6" toJunction="J5" end="180" vehsPerHour="5.527677211781531"/>
  <flow id="JF90960" begin="120" fromJunction="J6" toJunction="J7" end="180" vehsPerHour="47.29336346168151"/>
  <flow id="JF90961" begin="120" fromJunction="J7" toJunction="J0" end="180" vehsPerHour="39.73479226367168"/>
  <flow id="JF90962" begin="120" fromJunction="J7" toJunction="J4" end="180" vehsPerHour="36.51740139067605"/>
  <flow id="JF90963" begin="120" fromJunction="J7" toJunction="J5" end="180" vehsPerHour="35.7641450657547"/>
  <flow id="JF90964" begin="120" fromJunction="J7" toJunction="J6" end="180" vehsPerHour="3.6301416888147577"/>
  <flow id="JF90965" begin="180" fromJunction="J0" toJunction="J5" end="240" vehsPerHour="114.72943788509342"/>
  <flow id="JF90966" begin="180" fromJunction="J0" toJunction="J6" end="240" vehsPerHour="101.90015911343184"/>
  <flow id="JF90967" begin="180" fromJunction="J0" toJunction="J7" end="240" vehsPerHour="98.12887211494481"/>
  <flow id="JF90968" begin="180" fromJunction="J3" toJunction="J0" end="240" vehsPerHour="101.52873670238269"/>
  <flow id="JF90969" begin="180" fromJunction="J3" toJunction="J4" end="240" vehsPerHour="90.95532168539498"/>
  <flow id="JF90970" begin="180" fromJunction="J3" toJunction="J5" end="240" vehsPerHour="103.6939597766167"/>
  <flow id="JF90971" begin="180" fromJunction="J4" toJunction="J0" end="240" vehsPerHour="33.69996985455562"/>
  <flow id="JF90972" begin="180" fromJunction="J4" toJunction="J3" end="240" vehsPerHour="49.11466877045057"/>
  <flow id="JF90973" begin="180" fromJunction="J4" toJunction="J6" end="240" vehsPerHour="61.1804129712302"/>
  <flow id="JF90974" begin="180" fromJunction="J4" toJunction="J7" end="240" vehsPerHour="12.46380803453295"/>
  <flow id="JF90975" begin="180" fromJunction="J5" toJunction="J0" end="240" vehsPerHour="68.6303446417256"/>
  <flow id="JF90976" begin="180" fromJunction="J5" toJunction="J4" end="240" vehsPerHour="52.369718835056936"/>
  <flow id="JF90977" begin="180" fromJunction="J6" toJunction="J3" end="240" vehsPerHour="45.47982672516508"/>
  <flow id="JF90978" begin="180" fromJunction="J6" toJunction="J4" end="240" vehsPerHour="2.13230893915905"/>
  <flow id="JF90979" begin="180" fromJunction="J6" toJunction="J7" end="240" vehsPerHour="35.113225225134556"/>
  <flow id="JF90980" begin="180" fromJunction="J7" toJunction="J0" end="240" vehsPerHour="24.99266161088092"/>
  <flow id="JF90981" begin="180" fromJunction="J7" toJunction="J3" end="240" vehsPerHour="27.96568935983889"/>
  <flow id="JF90982" begin="180" fromJunction="J7" toJunction="J4" end="240" vehsPerHour="67.47515186783022"/>
  <flow id="JF90983" begin="180" fromJunction="J7" toJunction="J6" end="240" vehsPerHour="16.9183439502536"/>
  <flow id="JF90984" begin="240" fromJunction="J0" toJunction="J3" end="300" vehsPerHour="66.17932880471528"/>
  <flow id="JF90985" begin="240" fromJunction="J0" toJunction="J5" end="300" vehsPerHour="7.361541152303204"/>
  <flow id="JF90986" begin="240" fromJunction="J0" toJunction="J6" end="300" vehsPerHour="27.400372969848288"/>
  <flow id="JF90987" begin="240" fromJunction="J3" toJunction="J0" end="300" vehsPerHour="87.9667411882997"/>
  <flow id="JF90988" begin="240" fromJunction="J3" toJunction="J4" end="300" vehsPerHour="15.099502735539769"/>
  <flow id="JF90989" begin="240" fromJunction="J3" toJunction="J5" end="300" vehsPerHour="86.8849840244197"/>
  <flow id="JF90990" begin="240" fromJunction="J3" toJunction="J7" end="300" vehsPerHour="94.80176632589071"/>
  <flow id="JF90991" begin="240" fromJunction="J4" toJunction="J0" end="300" vehsPerHour="33.82456689130517"/>
  <flow id="JF90992" begin="240" fromJunction="J4" toJunction="J3" end="300" vehsPerHour="34.13350731730591"/>
  <flow id="JF90993" begin="240" fromJunction="J4" toJunction="J5" end="300" vehsPerHour="1.4233709629979416"/>
  <flow id="JF90994" begin="240" fromJunction="J4" toJunction="J6" end="300" vehsPerHour="66.48234783815978"/>
  <flow id="JF90995" begin="240" fromJunction="J4" toJunction="J7" end="300" vehsPerHour="20.68736649776178"/>
  <flow id="JF90996" begin="240" fromJunction="J5" toJunction="J3" end="300" vehsPerHour="17.675515658672822"/>
  <flow id="JF90997" begin="240" fromJunction="J5" toJunction="J4" end="300" vehsPerHour="8.901714049103076"/>
  <flow id="JF90998" begin="240" fromJunction="J5" toJunction="J6" end="300" vehsPerHour="27.86929845933779"/>
  <flow id="JF90999" begin="240" fromJunction="J5" toJunction="J7" end="300" vehsPerHour="10.212499528466122"/>
  <flow id="JF91000" begin="240" fromJunction="J6" toJunction="J0" end="300" vehsPerHour="57.508086379753195"/>
  <flow id="JF91001" begin="240" fromJunction="J6" toJunction="J4" end="300" vehsPerHour="52.84418638814628"/>
  <flow id="JF91002" begin="240" fromJunction="J6" toJunction="J7" end="300" vehsPerHour="32.993013229116166"/>
  <flow id="JF91003" begin="240" fromJunction="J7" toJunction="J0" end="300" vehsPerHour="57.32112646559121"/>
  <flow id="JF91004" begin="240" fromJunction="J7" toJunction="J3" end="300" vehsPerHour="19.568983529320178"/>
  <flow id="JF91005" begin="240" fromJunction="J7" toJunction="J5" end="300" vehsPerHour="35.73911408252335"/>
  <flow id="JF91006" begin="240" fromJunction="J7" toJunction="J6" end="300" vehsPerHour="52.52222602255227"/>
  <flow id="JF91007" begin="300" fromJunction="J0" toJunction="J3" end="360" vehsPerHour="9.220535227424573"/>
  <flow id="JF91008" begin="300" fromJunction="J0" toJunction="J4" end="360" vehsPerHour="77.16315006509438"/>
  <flow id="JF91009" begin="300" fromJunction="J0" toJunction="J5" end="360" vehsPerHour="110.6299140143452"/>
  <flow id="JF91010" begin="300" fromJunction="J0" toJunction="J6" end="360" vehsPerHour="41.21084729536887"/>
  <flow id="JF91011" begin="300" fromJunction="J0" toJunction="J7" end="360" vehsPerHour="15.217046638743675"/>
  <flow id="JF91012" begin="300" fromJunction="J3" toJunction="J0" end="360" vehsPerHour="34.86930382068631"/>
  <flow id="JF91013" begin="300" fromJunction="J3" toJunction="J4" end="360" vehsPerHour="64.96080547513826"/>
  <flow id="JF91014" begin="300" fromJunction="J3" toJunction="J5" end="360" vehsPerHour="37.66143637910165"/>
  <flow id="JF91015" begin="300" fromJunction="J3" toJunction="J6" end="360" vehsPerHour="91.68384191984833"/>
  <flow id="JF91016" begin="300" fromJunction="J4" toJunction="J0" end="360" vehsPerHour="41.039200768580116"/>
  <flow id="JF91017" begin="300" fromJunction="J4" toJunction="J3" end="360" vehsPerHour="32.76788104889851"/>
  <flow id="JF91018" begin="300" fromJunction="J4" toJunction="J6" end="360" vehsPerHour="59.796060837959516"/>
  <flow id="JF91019" begin="300" fromJunction="J4" toJunction="J7" end="360" vehsPerHour="29.546668061114737"/>
  <flow id="JF91020" begin="300" fromJunction="J5" toJunction="J3" end="360" vehsPerHour="64.36058669628368"/>
  <flow id="JF91021" begin="300" fromJunction="J5" toJunction="J6" end="360" vehsPerHour="19.51966386091593"/>
  <flow id="JF91022" begin="300" fromJunction="J6" toJunction="J0" end="360" vehsPerHour="67.9550002999403"/>
  <flow id="JF91023" begin="300" fromJunction="J6" toJunction="J3" end="360" vehsPerHour="2.5073387384540657"/>
  <flow id="JF91024" begin="300" fromJunction="J6" toJunction="J4" end="360" vehsPerHour="59.95185424990764"/>
  <flow id="JF91025" begin="300" fromJunction="J6" toJunction="J5" end="360" vehsPerHour="49.82376421785046"/>
  <flow id="JF91026" begin="300" fromJunction="J6" toJunction="J7" end="360" vehsPerHour="26.995045194078212"/>
  <flow id="JF91027" begin="300" fromJunction="J7" toJunction="J4" end="360" vehsPerHour="49.615920175979376"/>
  <flow id="JF91028" begin="300" fromJunction="J7" toJunction="J5" end="360" vehsPerHour="17.517264755953004"/>
  <flow id="JF91029" begin="300" fromJunction="J7" toJunction="J6" end="360" vehsPerHour="42.144929452428975"/>
  <flow id="JF91030" begin="360" fromJunction="J0" toJunction="J3" end="420" vehsPerHour="4.892901789231723"/>
  <flow id="JF91031" begin="360" fromJunction="J0" toJunction="J7" end="420" vehsPerHour="31.541602116926732"/>
  <flow id="JF91032" begin="360" fromJunction="J3" toJunction="J4" end="420" vehsPerHour="75.51988072874623"/>
  <flow id="JF91033" begin="360" fromJunction="J3" toJunction="J5" end="420" vehsPerHour="45.28707603069567"/>
  <flow id="JF91034" begin="360" fromJunction="J3" toJunction="J6" end="420" vehsPerHour="19.704460417105476"/>
  <flow id="JF91035" begin="360" fromJunction="J3" toJunction="J7" end="420" vehsPerHour="49.45985052516799"/>
  <flow id="JF91036" begin="360" fromJunction="J4" toJunction="J3" end="420" vehsPerHour="66.58744632184157"/>
  <flow id="JF91037" begin="360" fromJunction="J4" toJunction="J5" end="420" vehsPerHour="68.65427645524717"/>
  <flow id="JF91038" begin="360" fromJunction="J4" toJunction="J6" end="420" vehsPerHour="4.122621112894334"/>
  <flow id="JF91039" begin="360" fromJunction="J5" toJunction="J3" end="420" vehsPerHour="46.982100906286234"/>
  <flow id="JF91040" begin="360" fromJunction="J5" toJunction="J6" end="420" vehsPerHour="11.14715627875106"/>
  <flow id="JF91041" begin="360" fromJunction="J5" toJunction="J7" end="420" vehsPerHour="18.13041594287502"/>
  <flow id="JF91042" begin="360" fromJunction="J6" toJunction="J0" end="420" vehsPerHour="19.09352585394445"/>
  <flow id="JF91043" begin="360" fromJunction="J6" toJunction="J3" end="420" vehsPerHour="38.2309735588179"/>
  <flow id="JF91044" begin="360" fromJunction="J6" toJunction="J5" end="420" vehsPerHour="45.26031491439882"/>
  <flow id="JF91045" begin="360" fromJunction="J6" toJunction="J7" end="420" vehsPerHour="40.578268119552085"/>
  <flow id="JF91046" begin="360" fromJunction="J7" toJunction="J0" end="420" vehsPerHour="2.69637253811805"/>
  <flow id="JF91047" begin="360" fromJunction="J7" toJunction="J3" end="420" vehsPerHour="25.33501650045354"/>
  <flow id="JF91048" begin="360" fromJunction="J7" toJunction="J5" end="420" vehsPerHour="11.57185008388868"/>
  <flow id="JF91049" begin="360" fromJunction="J7" toJunction="J6" end="420" vehsPerHour="44.79894337289896"/>
  <flow id="JF91050" begin="420" fromJunction="J0" toJunction="J3" end="480" vehsPerHour="129.7986489207212"/>
  <flow id="JF91051" begin="420" fromJunction="J0" toJunction="J4" end="480" vehsPerHour="60.29043307465668"/>
  <flow id="JF91052" begin="420" fromJunction="J0" toJunction="J5" end="480" vehsPerHour="134.2278752119055"/>
  <flow id="JF91053" begin="420" fromJunction="J0" toJunction="J6" end="480" vehsPerHour="109.02643702159826"/>
  <flow id="JF91054" begin="420" fromJunction="J0" toJunction="J7" end="480" vehsPerHour="2.0607534705905413"/>
  <flow id="JF91055" begin="420" fromJunction="J3" toJunction="J6" end="480" vehsPerHour="73.05002475764641"/>
  <flow id="JF91056" begin="420" fromJunction="J3" toJunction="J7" end="480" vehsPerHour="105.29477249391346"/>
  <flow id="JF91057" begin="420" fromJunction="J4" toJunction="J0" end="480" vehsPerHour="10.315772320140931"/>
  <flow id="JF91058" begin="420" fromJunction="J4" toJunction="J3" end="480" vehsPerHour="60.234060251764205"/>
  <flow id="JF91059" begin="420" fromJunction="J4" toJunction="J5" end="480" vehsPerHour="17.032729779712543"/>
  <flow id="JF91060" begin="420" fromJunction="J4" toJunction="J6" end="480" vehsPerHour="36.65438751088233"/>
  <flow id="JF91061" begin="420" fromJunction="J5" toJunction="J3" end="480" vehsPerHour="37.45276830795662"/>
  <flow id="JF91062" begin="420" fromJunction="J5" toJunction="J4" end="480" vehsPerHour="14.630638590718405"/>
  <flow id="JF91063" begin="420" fromJunction="J5" toJunction="J6" end="480" vehsPerHour="38.80236557237689"/>
  <flow id="JF91064" begin="420" fromJunction="J5" toJunction="J7" end="480" vehsPerHour="16.772654936381485"/>
  <flow id="JF91065" begin="420" fromJunction="J6" toJunction="J0" end="480" vehsPerHour="63.5870370103981"/>
  <flow id="JF91066" begin="420" fromJunction="J6" toJunction="J3" end="480" vehsPerHour="0.7428299530430834"/>
  <flow id="JF91067" begin="420" fromJunction="J6" toJunction="J4" end="480" vehsPerHour="47.63494793813132"/>
  <flow id="JF91068" begin="420" fromJunction="J6" toJunction="J5" end="480" vehsPerHour="3.309359157178392"/>
  <flow id="JF91069" begin="420" fromJunction="J6" toJunction="J7" end="480" vehsPerHour="66.85349574439395"/>
  <flow id="JF91070" begin="420" fromJunction="J7" toJunction="J3" end="480" vehsPerHour="16.99578162109778"/>
  <flow id="JF91071" begin="420" fromJunction="J7" toJunction="J5" end="480" vehsPerHour="12.594278526886573"/>
  <flow id="JF91072" begin="480" fromJunction="J0" toJunction="J3" end="540" vehsPerHour="30.589813114020018"/>
  <flow id="JF91073" begin="480" fromJunction="J0" toJunction="J4" end="540" vehsPerHour="105.85317618341999"/>
  <flow id="JF91074" begin="480" fromJunction="J0" toJunction="J6" end="540" vehsPerHour="1.3601610192906788"/>
  <flow id="JF91075" begin="480" fromJunction="J3" toJunction="J4" end="540" vehsPerHour="81.85510019389925"/>
  <flow id="JF91076" begin="480" fromJunction="J3" toJunction="J6" end="540" vehsPerHour="117.58490850588903"/>
  <flow id="JF91077" begin="480" fromJunction="J3" toJunction="J7" end="540" vehsPerHour="95.99311789281782"/>
  <flow id="JF91078" begin="480" fromJunction="J4" toJunction="J0" end="540" vehsPerHour="38.43042354131726"/>
  <flow id="JF91079" begin="480" fromJunction="J4" toJunction="J6" end="540" vehsPerHour="7.791725631627271"/>
  <flow id="JF91080" begin="480" fromJunction="J4" toJunction="J7" end="540" vehsPerHour="0.3883439468060269"/>
  <flow id="JF91081" begin="480" fromJunction="J5" toJunction="J4" end="540" vehsPerHour="5.135152686043542"/>
  <flow id="JF91082" begin="480" fromJunction="J5" toJunction="J6" end="540" vehsPerHour="1.5763194499860333"/>
  <flow id="JF91083" begin="480" fromJunction="J5" toJunction="J7" end="540" vehsPerHour="54.76639110917702"/>
  <flow id="JF91084" begin="480" fromJunction="J6" toJunction="J0" end="540" vehsPerHour="39.42116671122412"/>
  <flow id="JF91085" begin="480" fromJunction="J6" toJunction="J4" end="540" vehsPerHour="35.606758252096576"/>
  <flow id="JF91086" begin="480" fromJunction="J6" toJunction="J5" end="540" vehsPerHour="63.165684020033964"/>
  <flow id="JF91087" begin="480" fromJunction="J7" toJunction="J0" end="540" vehsPerHour="16.153670252759742"/>
  <flow id="JF91088" begin="480" fromJunction="J7" toJunction="J3" end="540" vehsPerHour="54.437251171408"/>
  <flow id="JF91089" begin="480" fromJunction="J7" toJunction="J4" end="540" vehsPerHour="7.006040695372045"/>
  <flow id="JF91090" begin="480" fromJunction="J7" toJunction="J5" end="540" vehsPerHour="4.635897732170374"/>
  <flow id="JF91091" begin="480" fromJunction="J7" toJunction="J6" end="540" vehsPerHour="58.290522234038676"/>
  <flow id="JF91092" begin="540" fromJunction="J0" toJunction="J3" end="600" vehsPerHour="54.09604029145645"/>
  <flow id="JF91093" begin="540" fromJunction="J0" toJunction="J7" end="600" vehsPerHour="44.607404889729175"/>
  <flow id="JF91094" begin="540" fromJunction="J3" toJunction="J0" end="600" vehsPerHour="69.33935808481066"/>
  <flow id="JF91095" begin="540" fromJunction="J3" toJunction="J4" end="600" vehsPerHour="137.2353917451431"/>
  <flow id="JF91096" begin="540" fromJunction="J3" toJunction="J5" end="600" vehsPerHour="46.42004966876762"/>
  <flow id="JF91097" begin="540" fromJunction="J4" toJunction="J3" end="600" vehsPerHour="28.72853202996466"/>
  <flow id="JF91098" begin="540" fromJunction="J4" toJunction="J5" end="600" vehsPerHour="38.52421924501969"/>
  <flow id="JF91099" begin="540" fromJunction="J4" toJunction="J6" end="600" vehsPerHour="22.062507623077128"/>
  <flow id="JF91100" begin="540" fromJunction="J4" toJunction="J7" end="600" vehsPerHour="32.14581288281188"/>
  <flow id="JF91101" begin="540" fromJunction="J5" toJunction="J0" end="600" vehsPerHour="35.20121768016044"/>
  <flow id="JF91102" begin="540" fromJunction="J5" toJunction="J3" end="600" vehsPerHour="48.744233936914895"/>
  <flow id="JF91103" begin="540" fromJunction="J5" toJunction="J6" end="600" vehsPerHour="7.66560600313839"/>
  <flow id="JF91104" begin="540" fromJunction="J5" toJunction="J7" end="600" vehsPerHour="48.279374360379585"/>
  <flow id="JF91105" begin="540" fromJunction="J6" toJunction="J0" end="600" vehsPerHour="63.17198110705678"/>
  <flow id="JF91106" begin="540" fromJunction="J6" toJunction="J3" end="600" vehsPerHour="20.659349495450684"/>
  <flow id="JF91107" begin="540" fromJunction="J6" toJunction="J5" end="600" vehsPerHour="62.54397251456689"/>
  <flow id="JF91108" begin="540" fromJunction="J6" toJunction="J7" end="600" vehsPerHour="7.212086606186138"/>
  <flow id="JF91109" begin="540" fromJunction="J7" toJunction="J4" end="600" vehsPerHour="8.639014623411658"/>
  <flow id="JF91110" begin="540" fromJunction="J7" toJunction="J6" end="600" vehsPerHour="40.52549403441232"/>
  <flow id="JF91111" begin="600" fromJunction="J0" toJunction="J3" end="660" vehsPerHour="100.63857550279464"/>
  <flow id="JF91112" begin="600" fromJunction="J0" toJunction="J4" end="660" vehsPerHour="42.28177202402374"/>
  <flow id="JF91113" begin="600" fromJunction="J0" toJunction="J5" end="660" vehsPerHour="39.77944317567255"/>
  <flow id="JF91114" begin="600" fromJunction="J0" toJunction="J6" end="660" vehsPerHour="24.61145689839657"/>
  <flow id="JF91115" begin="600" fromJunction="J3" toJunction="J0" end="660" vehsPerHour="61.78955501022675"/>
  <flow id="JF91116" begin="600" fromJunction="J3" toJunction="J4" end="660" vehsPerHour="21.31742504612747"/>
  <flow id="JF91117" begin="600" fromJunction="J3" toJunction="J5" end="660" vehsPerHour="120.89414149405015"/>
  <flow id="JF91118" begin="600" fromJunction="J3" toJunction="J7" end="660" vehsPerHour="80.64285394595304"/>
  <flow id="JF91119" begin="600" fromJunction="J4" toJunction="J3" end="660" vehsPerHour="24.327743893221413"/>
  <flow id="JF91120" begin="600" fromJunction="J4" toJunction="J5" end="660" vehsPerHour="7.170550991751025"/>
  <flow id="JF91121" begin="600" fromJunction="J4" toJunction="J7" end="660" vehsPerHour="0.5759975863966684"/>
  <flow id="JF91122" begin="600" fromJunction="J5" toJunction="J3" end="660" vehsPerHour="12.2944841775013"/>
  <flow id="JF91123" begin="600" fromJunction="J5" toJunction="J4" end="660" vehsPerHour="39.73503829369045"/>
  <flow id="JF91124" begin="600" fromJunction="J6" toJunction="J4" end="660" vehsPerHour="42.027154700175146"/>
  <flow id="JF91125" begin="600" fromJunction="J6" toJunction="J5" end="660" vehsPerHour="19.79929896106513"/>
  <flow id="JF91126" begin="600" fromJunction="J7" toJunction="J0" end="660" vehsPerHour="12.26242318428129"/>
  <flow id="JF91127" begin="600" fromJunction="J7" toJunction="J3" end="660" vehsPerHour="17.306754117634657"/>
  <flow id="JF91128" begin="600" fromJunction="J7" toJunction="J5" end="660" vehsPerHour="33.57693218771964"/>
  <flow id="JF91129" begin="600" fromJunction="J7" toJunction="J6" end="660" vehsPerHour="61.08552767678638"/>
  <flow id="JF91130" begin="660" fromJunction="J0" toJunction="J4" end="720" vehsPerHour="125.47025004189571"/>
  <flow id="JF91131" begin="660" fromJunction="J0" toJunction="J5" end="720" vehsPerHour="10.562812539921119"/>
  <flow id="JF91132" begin="660" fromJunction="J0" toJunction="J7" end="720" vehsPerHour="26.39764662127398"/>
  <flow id="JF91133" begin="660" fromJunction="J3" toJunction="J4" end="720" vehsPerHour="11.074539487469725"/>
  <flow id="JF91134" begin="660" fromJunction="J3" toJunction="J6" end="720" vehsPerHour="43.058417537845436"/>
  <flow id="JF91135" begin="660" fromJunction="J3" toJunction="J7" end="720" vehsPerHour="65.18077324851848"/>
  <flow id="JF91136" begin="660" fromJunction="J4" toJunction="J5" end="720" vehsPerHour="46.98985725395431"/>
  <flow id="JF91137" begin="660" fromJunction="J4" toJunction="J6" end="720" vehsPerHour="65.59077185519868"/>
  <flow id="JF91138" begin="660" fromJunction="J5" toJunction="J3" end="720" vehsPerHour="23.661162209541544"/>
  <flow id="JF91139" begin="660" fromJunction="J5" toJunction="J6" end="720" vehsPerHour="59.27967285434081"/>
  <flow id="JF91140" begin="660" fromJunction="J6" toJunction="J4" end="720" vehsPerHour="62.05870272099452"/>
  <flow id="JF91141" begin="660" fromJunction="J6" toJunction="J5" end="720" vehsPerHour="16.71684964752475"/>
  <flow id="JF91142" begin="660" fromJunction="J6" toJunction="J7" end="720" vehsPerHour="43.59057074635009"/>
  <flow id="JF91143" begin="660" fromJunction="J7" toJunction="J6" end="720" vehsPerHour="27.005692911516096"/>
  <flow id="JF91144" begin="720" fromJunction="J0" toJunction="J3" end="780" vehsPerHour="97.46877480240887"/>
  <flow id="JF91145" begin="720" fromJunction="J0" toJunction="J4" end="780" vehsPerHour="56.12649471961599"/>
  <flow id="JF91146" begin="720" fromJunction="J0" toJunction="J6" end="780" vehsPerHour="12.003184879540628"/>
  <flow id="JF91147" begin="720" fromJunction="J0" toJunction="J7" end="780" vehsPerHour="81.3156092342503"/>
  <flow id="JF91148" begin="720" fromJunction="J3" toJunction="J4" end="780" vehsPerHour="136.54282284232633"/>
  <flow id="JF91149" begin="720" fromJunction="J3" toJunction="J5" end="780" vehsPerHour="9.622984356659508"/>
  <flow id="JF91150" begin="720" fromJunction="J3" toJunction="J6" end="780" vehsPerHour="89.8450228076633"/>
  <flow id="JF91151" begin="720" fromJunction="J4" toJunction="J0" end="780" vehsPerHour="50.046040392990584"/>
  <flow id="JF91152" begin="720" fromJunction="J4" toJunction="J3" end="780" vehsPerHour="48.8997185782831"/>
  <flow id="JF91153" begin="720" fromJunction="J4" toJunction="J5" end="780" vehsPerHour="10.949028566351535"/>
  <flow id="JF91154" begin="720" fromJunction="J4" toJunction="J6" end="780" vehsPerHour="15.807556191676445"/>
  <flow id="JF91155" begin="720" fromJunction="J4" toJunction="J7" end="780" vehsPerHour="9.002279234139307"/>
  <flow id="JF91156" begin="720" fromJunction="J5" toJunction="J0" end="780" vehsPerHour="59.319275842214225"/>
  <flow id="JF91157" begin="720" fromJunction="J5" toJunction="J3" end="780" vehsPerHour="63.47933099638997"/>
  <flow id="JF91158" begin="720" fromJunction="J5" toJunction="J6" end="780" vehsPerHour="52.09667780182866"/>
  <flow id="JF91159" begin="720" fromJunction="J5" toJunction="J7" end="780" vehsPerHour="16.955163453239766"/>
  <flow id="JF91160" begin="720" fromJunction="J6" toJunction="J0" end="780" vehsPerHour="15.614402773696698"/>
  <flow id="JF91161" begin="720" fromJunction="J6" toJunction="J3" end="780" vehsPerHour="20.998827864643744"/>
  <flow id="JF91162" begin="720" fromJunction="J6" toJunction="J4" end="780" vehsPerHour="2.7557860059151857"/>
  <flow id="JF91163" begin="720" fromJunction="J6" toJunction="J7" end="780" vehsPerHour="2.034772672471115"/>