<?xml version="1.0" encoding="UTF-8"?>
<routes xmlns:xsi="http://www.w3.org/2001/XMLSchema-instance" xsi:noNamespaceSchemaLocation="http://sumo.dlr.de/xsd/routes_file.xsd">
  <flow id="JF160160" begin="0" fromJunction="J3" toJunction="J0" end="60" vehsPerHour="6.26377419317137" departLane="free"/>
  <flow id="JF160161" begin="0" fromJunction="J0" toJunction="J3" end="60" vehsPerHour="30.088132957096327" departLane="free"/>
  <flow id="JF160162" begin="0" fromJunction="J3" toJunction="J5" end="60" vehsPerHour="46.09997018397337" departLane="free"/>
  <flow id="JF160163" begin="0" fromJunction="J3" toJunction="J4" end="60" vehsPerHour="381.0091305295241" departLane="free"/>
  <flow id="JF160164" begin="0" fromJunction="J3" toJunction="J6" end="60" vehsPerHour="223.25903315960477" departLane="free"/>
  <flow id="JF160165" begin="0" fromJunction="J3" toJunction="J7" end="60" vehsPerHour="170.91604945161214" departLane="free"/>
  <flow id="JF160166" begin="0" fromJunction="J0" toJunction="J5" end="60" vehsPerHour="404.99570944858067" departLane="free"/>
  <flow id="JF160167" begin="0" fromJunction="J0" toJunction="J4" end="60" vehsPerHour="122.54897924573645" departLane="free"/>
  <flow id="JF160168" begin="0" fromJunction="J0" toJunction="J6" end="60" vehsPerHour="385.5083649075611" departLane="free"/>
  <flow id="JF160169" begin="0" fromJunction="J0" toJunction="J7" end="60" vehsPerHour="65.53439308913306" departLane="free"/>
  <flow id="JF160170" begin="0" fromJunction="J5" toJunction="J4" end="60" vehsPerHour="40.85488409906344" departLane="free"/>
  <flow id="JF160171" begin="0" fromJunction="J5" toJunction="J6" end="60" vehsPerHour="11.291048069121038" departLane="free"/>
  <flow id="JF160172" begin="0" fromJunction="J5" toJunction="J7" end="60" vehsPerHour="61.24641301737513" departLane="free"/>
  <flow id="JF160173" begin="0" fromJunction="J4" toJunction="J5" end="60" vehsPerHour="23.48490159204522" departLane="free"/>
  <flow id="JF160174" begin="0" fromJunction="J4" toJunction="J6" end="60" vehsPerHour="36.596910966488075" departLane="free"/>
  <flow id="JF160175" begin="0" fromJunction="J4" toJunction="J7" end="60" vehsPerHour="62.24013337985892" departLane="free"/>
  <flow id="JF160176" begin="0" fromJunction="J6" toJunction="J5" end="60" vehsPerHour="33.7674608941646" departLane="free"/>
  <flow id="JF160177" begin="0" fromJunction="J6" toJunction="J4" end="60" vehsPerHour="2.469272300574217" departLane="free"/>
  <flow id="JF160178" begin="0" fromJunction="J6" toJunction="J7" end="60" vehsPerHour="55.45276155475245" departLane="free"/>
  <flow id="JF160179" begin="0" fromJunction="J7" toJunction="J5" end="60" vehsPerHour="5.184985443265756" departLane="free"/>
  <flow id="JF160180" begin="0" fromJunction="J7" toJunction="J4" end="60" vehsPerHour="0.4086187881619469" departLane="free"/>
  <flow id="JF160181" begin="0" fromJunction="J7" toJunction="J6" end="60" vehsPerHour="20.104752014068477" departLane="free"/>
  <flow id="JF160182" begin="0" fromJunction="J5" toJunction="J3" end="60" vehsPerHour="203.71958033583135" departLane="free"/>
  <flow id="JF160183" begin="0" fromJunction="J5" toJunction="J0" end="60" vehsPerHour="249.5446224898969" departLane="free"/>
  <flow id="JF160184" begin="0" fromJunction="J4" toJunction="J3" end="60" vehsPerHour="127.37428874423661" departLane="free"/>
  <flow id="JF160185" begin="0" fromJunction="J4" toJunction="J0" end="60" vehsPerHour="81.87141732143456" departLane="free"/>
  <flow id="JF160186" begin="0" fromJunction="J6" toJunction="J3" end="60" vehsPerHour="256.6926459866512" departLane="free"/>
  <flow id="JF160187" begin="0" fromJunction="J6" toJunction="J0" end="60" vehsPerHour="57.23599594959305" departLane="free"/>
  <flow id="JF160188" begin="0" fromJunction="J7" toJunction="J3" end="60" vehsPerHour="91.09265990510318" departLane="free"/>
  <flow id="JF160189" begin="0" fromJunction="J7" toJunction="J0" end="60" vehsPerHour="215.40013320993071" departLane="free"/>
  <flow id="JF160190" begin="60" fromJunction="J3" toJunction="J0" end="120" vehsPerHour="62.9874599774768" departLane="free"/>
  <flow id="JF160191" begin="60" fromJunction="J0" toJunction="J3" end="120" vehsPerHour="43.82577652420517" departLane="free"/>
  <flow id="JF160192" begin="60" fromJunction="J3" toJunction="J5" end="120" vehsPerHour="440.093206274631" departLane="free"/>
  <flow id="JF160193" begin="60" fromJunction="J3" toJunction="J4" end="120" vehsPerHour="319.45869420402215" departLane="free"/>
  <flow id="JF160194" begin="60" fromJunction="J3" toJunction="J6" end="120" vehsPerHour="343.11345934151336" departLane="free"/>
  <flow id="JF160195" begin="60" fromJunction="J3" toJunction="J7" end="120" vehsPerHour="373.223661899641" departLane="free"/>
  <flow id="JF160196" begin="60" fromJunction="J0" toJunction="J5" end="120" vehsPerHour="197.22131977139233" departLane="free"/>
  <flow id="JF160197" begin="60" fromJunction="J0" toJunction="J4" end="120" vehsPerHour="119.6240360416868" departLane="free"/>
  <flow id="JF160198" begin="60" fromJunction="J0" toJunction="J6" end="120" vehsPerHour="402.9312250064896" departLane="free"/>
  <flow id="JF160199" begin="60" fromJunction="J0" toJunction="J7" end="120" vehsPerHour="9.541982282668224" departLane="free"/>
  <flow id="JF160200" begin="60" fromJunction="J5" toJunction="J4" end="120" vehsPerHour="44.45839349978218" departLane="free"/>
  <flow id="JF160201" begin="60" fromJunction="J5" toJunction="J6" end="120" vehsPerHour="53.12301668429058" departLane="free"/>
  <flow id="JF160202" begin="60" fromJunction="J5" toJunction="J7" end="120" vehsPerHour="35.05016249177127" departLane="free"/>
  <flow id="JF160203" begin="60" fromJunction="J4" toJunction="J5" end="120" vehsPerHour="49.37616343249048" departLane="free"/>
  <flow id="JF160204" begin="60" fromJunction="J4" toJunction="J6" end="120" vehsPerHour="67.59549145317919" departLane="free"/>
  <flow id="JF160205" begin="60" fromJunction="J4" toJunction="J7" end="120" vehsPerHour="5.726585047719092" departLane="free"/>
  <flow id="JF160206" begin="60" fromJunction="J6" toJunction="J5" end="120" vehsPerHour="64.20168526503741" departLane="free"/>
  <flow id="JF160207" begin="60" fromJunction="J6" toJunction="J4" end="120" vehsPerHour="5.94008172491506" departLane="free"/>
  <flow id="JF160208" begin="60" fromJunction="J6" toJunction="J7" end="120" vehsPerHour="60.08741492344868" departLane="free"/>
  <flow id="JF160209" begin="60" fromJunction="J7" toJunction="J5" end="120" vehsPerHour="50.904496752853184" departLane="free"/>
  <flow id="JF160210" begin="60" fromJunction="J7" toJunction="J4" end="120" vehsPerHour="53.157619810837744" departLane="free"/>
  <flow id="JF160211" begin="60" fromJunction="J7" toJunction="J6" end="120" vehsPerHour="26.35896710110039" departLane="free"/>
  <flow id="JF160212" begin="60" fromJunction="J5" toJunction="J3" end="120" vehsPerHour="26.061223329144894" departLane="free"/>
  <flow id="JF160213" begin="60" fromJunction="J5" toJunction="J0" end="120" vehsPerHour="164.343963771525" departLane="free"/>
  <flow id="JF160214" begin="60" fromJunction="J4" toJunction="J3" end="120" vehsPerHour="103.36571331792187" departLane="free"/>
  <flow id="JF160215" begin="60" fromJunction="J4" toJunction="J0" end="120" vehsPerHour="197.19697196911204" departLane="free"/>
  <flow id="JF160216" begin="60" fromJunction="J6" toJunction="J3" end="120" vehsPerHour="55.116378280745884" departLane="free"/>
  <flow id="JF160217" begin="60" fromJunction="J6" toJunction="J0" end="120" vehsPerHour="21.953351288849447" departLane="free"/>
  <flow id="JF160218" begin="60" fromJunction="J7" toJunction="J3" end="120" vehsPerHour="132.4481648941243" departLane="free"/>
  <flow id="JF160219" begin="60" fromJunction="J7" toJunction="J0" end="120" vehsPerHour="77.08919156864351" departLane="free"/>
  <flow id="JF160220" begin="120" fromJunction="J3" toJunction="J0" end="180" vehsPerHour="84.09687120061055" departLane="free"/>
  <flow id="JF160221" begin="120" fromJunction="J0" toJunction="J3" end="180" vehsPerHour="3.917801289383599" departLane="free"/>
  <flow id="JF160222" begin="120" fromJunction="J3" toJunction="J5" end="180" vehsPerHour="123.53231159757543" departLane="free"/>
  <flow id="JF160223" begin="120" fromJunction="J3" toJunction="J4" end="180" vehsPerHour="71.21069461889061" departLane="free"/>
  <flow id="JF160224" begin="120" fromJunction="J3" toJunction="J6" end="180" vehsPerHour="358.0933344448465" departLane="free"/>
  <flow id="JF160225" begin="120" fromJunction="J3" toJunction="J7" end="180" vehsPerHour="540.6707073833979" departLane="free"/>
  <flow id="JF160226" begin="120" fromJunction="J0" toJunction="J5" end="180" vehsPerHour="233.4882772770233" departLane="free"/>
  <flow id="JF160227" begin="120" fromJunction="J0" toJunction="J4" end="180" vehsPerHour="248.52240894409175" departLane="free"/>
  <flow id="JF160228" begin="120" fromJunction="J0" toJunction="J6" end="180" vehsPerHour="64.04468736470335" departLane="free"/>
  <flow id="JF160229" begin="120" fromJunction="J0" toJunction="J7" end="180" vehsPerHour="274.161920340029" departLane="free"/>
  <flow id="JF160230" begin="120" fromJunction="J5" toJunction="J4" end="180" vehsPerHour="63.09455260989667" departLane="free"/>
  <flow id="JF160231" begin="120" fromJunction="J5" toJunction="J6" end="180" vehsPerHour="50.581302496254075" departLane="free"/>
  <flow id="JF160232" begin="120" fromJunction="J5" toJunction="J7" end="180" vehsPerHour="59.22136134760732" departLane="free"/>
  <flow id="JF160233" begin="120" fromJunction="J4" toJunction="J5" end="180" vehsPerHour="44.380203041136525" departLane="free"/>
  <flow id="JF160234" begin="120" fromJunction="J4" toJunction="J6" end="180" vehsPerHour="54.35363913826435" departLane="free"/>
  <flow id="JF160235" begin="120" fromJunction="J4" toJunction="J7" end="180" vehsPerHour="51.16143863435124" departLane="free"/>
  <flow id="JF160236" begin="120" fromJunction="J6" toJunction="J5" end="180" vehsPerHour="28.907094716337625" departLane="free"/>
  <flow id="JF160237" begin="120" fromJunction="J6" toJunction="J4" end="180" vehsPerHour="52.696107981922715" departLane="free"/>
  <flow id="JF160238" begin="120" fromJunction="J6" toJunction="J7" end="180" vehsPerHour="57.80780808090904" departLane="free"/>
  <flow id="JF160239" begin="120" fromJunction="J7" toJunction="J5" end="180" vehsPerHour="49.53734695815873" departLane="free"/>
  <flow id="JF160240" begin="120" fromJunction="J7" toJunction="J4" end="180" vehsPerHour="34.77889282413514" departLane="free"/>
  <flow id="JF160241" begin="120" fromJunction="J7" toJunction="J6" end="180" vehsPerHour="61.46729747046939" departLane="free"/>
  <flow id="JF160242" begin="120" fromJunction="J5" toJunction="J3" end="180" vehsPerHour="80.60108486870442" departLane="free"/>
  <flow id="JF160243" begin="120" fromJunction="J5" toJunction="J0" end="180" vehsPerHour="125.60742184249389" departLane="free"/>
  <flow id="JF160244" begin="120" fromJunction="J4" toJunction="J3" end="180" vehsPerHour="148.45557079627693" departLane="free"/>
  <flow id="JF160245" begin="120" fromJunction="J4" toJunction="J0" end="180" vehsPerHour="55.149019579245326" departLane="free"/>
  <flow id="JF160246" begin="120" fromJunction="J6" toJunction="J3" end="180" vehsPerHour="238.897672052416" departLane="free"/>
  <flow id="JF160247" begin="120" fromJunction="J6" toJunction="J0" end="180" vehsPerHour="211.31720176529294" departLane="free"/>
  <flow id="JF160248" begin="120" fromJunction="J7" toJunction="J3" end="180" vehsPerHour="192.83075561807354" departLane="free"/>
  <flow id="JF160249" begin="120" fromJunction="J7" toJunction="J0" end="180" vehsPerHour="118.89400521588756" departLane="free"/>
  <flow id="JF160250" begin="180" fromJunction="J3" toJunction="J0" end="240" vehsPerHour="101.53561183939304" departLane="free"/>
  <flow id="JF160251" begin="180" fromJunction="J0" toJunction="J3" end="240" vehsPerHour="69.37775878381149" departLane="free"/>
  <flow id="JF160252" begin="180" fromJunction="J3" toJunction="J5" end="240" vehsPerHour="128.5705875035049" departLane="free"/>
  <flow id="JF160253" begin="180" fromJunction="J3" toJunction="J4" end="240" vehsPerHour="120.02291033434416" departLane="free"/>
  <flow id="JF160254" begin="180" fromJunction="J3" toJunction="J6" end="240" vehsPerHour="360.6670817328854" departLane="free"/>
  <flow id="JF160255" begin="180" fromJunction="J3" toJunction="J7" end="240" vehsPerHour="415.8671925979846" departLane="free"/>
  <flow id="JF160256" begin="180" fromJunction="J0" toJunction="J5" end="240" vehsPerHour="316.60802114141006" departLane="free"/>
  <flow id="JF160257" begin="180" fromJunction="J0" toJunction="J4" end="240" vehsPerHour="278.787436406136" departLane="free"/>
  <flow id="JF160258" begin="180" fromJunction="J0" toJunction="J6" end="240" vehsPerHour="388.7008079217402" departLane="free"/>
  <flow id="JF160259" begin="180" fromJunction="J0" toJunction="J7" end="240" vehsPerHour="209.27542034138597" departLane="free"/>
  <flow id="JF160260" begin="180" fromJunction="J5" toJunction="J4" end="240" vehsPerHour="44.57936608833322" departLane="free"/>
  <flow id="JF160261" begin="180" fromJunction="J5" toJunction="J6" end="240" vehsPerHour="56.780402798051696" departLane="free"/>
  <flow id="JF160262" begin="180" fromJunction="J5" toJunction="J7" end="240" vehsPerHour="68.4968002223911" departLane="free"/>
  <flow id="JF160263" begin="180" fromJunction="J4" toJunction="J5" end="240" vehsPerHour="1.1442644610899846" departLane="free"/>
  <flow id="JF160264" begin="180" fromJunction="J4" toJunction="J6" end="240" vehsPerHour="25.581409272239924" departLane="free"/>
  <flow id="JF160265" begin="180" fromJunction="J4" toJunction="J7" end="240" vehsPerHour="67.77251272988745" departLane="free"/>
  <flow id="JF160266" begin="180" fromJunction="J6" toJunction="J5" end="240" vehsPerHour="47.30793295359131" departLane="free"/>
  <flow id="JF160267" begin="180" fromJunction="J6" toJunction="J4" end="240" vehsPerHour="66.81190823750126" departLane="free"/>
  <flow id="JF160268" begin="180" fromJunction="J6" toJunction="J7" end="240" vehsPerHour="47.52780970048482" departLane="free"/>
  <flow id="JF160269" begin="180" fromJunction="J7" toJunction="J5" end="240" vehsPerHour="21.006678719844224" departLane="free"/>
  <flow id="JF160270" begin="180" fromJunction="J7" toJunction="J4" end="240" vehsPerHour="15.499618288160358" departLane="free"/>
  <flow id="JF160271" begin="180" fromJunction="J7" toJunction="J6" end="240" vehsPerHour="18.250943350381615" departLane="free"/>
  <flow id="JF160272" begin="180" fromJunction="J5" toJunction="J3" end="240" vehsPerHour="205.44437072496203" departLane="free"/>
  <flow id="JF160273" begin="180" fromJunction="J5" toJunction="J0" end="240" vehsPerHour="21.21959952883456" departLane="free"/>
  <flow id="JF160274" begin="180" fromJunction="J4" toJunction="J3" end="240" vehsPerHour="93.61358995146945" departLane="free"/>
  <flow id="JF160275" begin="180" fromJunction="J4" toJunction="J0" end="240" vehsPerHour="246.75770625752176" departLane="free"/>
  <flow id="JF160276" begin="180" fromJunction="J6" toJunction="J3" end="240" vehsPerHour="51.5954681335149" departLane="free"/>
  <flow id="JF160277" begin="180" fromJunction="J6" toJunction="J0" end="240" vehsPerHour="232.63642245608705" departLane="free"/>
  <flow id="JF160278" begin="180" fromJunction="J7" toJunction="J3" end="240" vehsPerHour="184.3088438766343" departLane="free"/>
  <flow id="JF160279" begin="180" fromJunction="J7" toJunction="J0" end="240" vehsPerHour="108.35322598285654" departLane="free"/>
  <flow id="JF160280" begin="240" fromJunction="J3" toJunction="J0" end="300" vehsPerHour="15.509650601070287" departLane="free"/>
  <flow id="JF160281" begin="240" fromJunction="J0" toJunction="J3" end="300" vehsPerHour="114.08227858712686" departLane="free"/>
  <flow id="JF160282" begin="240" fromJunction="J3" toJunction="J5" end="300" vehsPerHour="455.17833142253824" departLane="free"/>
  <flow id="JF160283" begin="240" fromJunction="J3" toJunction="J4" end="300" vehsPerHour="442.7311004661212" departLane="free"/>
  <flow id="JF160284" begin="240" fromJunction="J3" toJunction="J6" end="300" vehsPerHour="48.39471154240027" departLane="free"/>
  <flow id="JF160285" begin="240" fromJunction="J3" toJunction="J7" end="300" vehsPerHour="175.25754864126986" departLane="free"/>
  <flow id="JF160286" begin="240" fromJunction="J0" toJunction="J5" end="300" vehsPerHour="217.70112388816023" departLane="free"/>
  <flow id="JF160287" begin="240" fromJunction="J0" toJunction="J4" end="300" vehsPerHour="58.0888251491952" departLane="free"/>
  <flow id="JF160288" begin="240" fromJunction="J0" toJunction="J6" end="300" vehsPerHour="349.72240657126287" departLane="free"/>
  <flow id="JF160289" begin="240" fromJunction="J0" toJunction="J7" end="300" vehsPerHour="11.487381843338028" departLane="free"/>
  <flow id="JF160290" begin="300" fromJunction="J3" toJunction="J0" end="360" vehsPerHour="125.52139806919264" departLane="free"/>
  <flow id="JF160291" begin="300" fromJunction="J0" toJunction="J3" end="360" vehsPerHour="123.64269694059735" departLane="free"/>
  <flow id="JF160292" begin="300" fromJunction="J3" toJunction="J5" end="360" vehsPerHour="246.72168607913946" departLane="free"/>
  <flow id="JF160293" begin="300" fromJunction="J3" toJunction="J4" end="360" vehsPerHour="287.57699128656503" departLane="free"/>
  <flow id="JF160294" begin="300" fromJunction="J3" toJunction="J6" end="360" vehsPerHour="73.7654828358419" departLane="free"/>
  <flow id="JF160295" begin="300" fromJunction="J3" toJunction="J7" end="360" vehsPerHour="73.46912808227192" departLane="free"/>
  <flow id="JF160296" begin="300" fromJunction="J0" toJunction="J5" end="360" vehsPerHour="298.5643681948045" departLane="free"/>
  <flow id="JF160297" begin="300" fromJunction="J0" toJunction="J4" end="360" vehsPerHour="117.22520862801393" departLane="free"/>
  <flow id="JF160298" begin="300" fromJunction="J0" toJunction="J6" end="360" vehsPerHour="378.35861072545737" departLane="free"/>
  <flow id="JF160299" begin="300" fromJunction="J0" toJunction="J7" end="360" vehsPerHour="72.93682352211778" departLane="free"/>
  <flow id="JF160300" begin="300" fromJunction="J5" toJunction="J4" end="360" vehsPerHour="0.3746733038587821" departLane="free"/>
  <flow id="JF160301" begin="300" fromJunction="J5" toJunction="J6" end="360" vehsPerHour="22.469210203528704" departLane="free"/>
  <flow id="JF160302" begin="300" fromJunction="J5" toJunction="J7" end="360" vehsPerHour="63.06991119661497" departLane="free"/>
  <flow id="JF160303" begin="300" fromJunction="J4" toJunction="J5" end="360" vehsPerHour="25.635827588726258" departLane="free"/>
  <flow id="JF160304" begin="300" fromJunction="J4" toJunction="J6" end="360" vehsPerHour="63.39687574116181" departLane="free"/>
  <flow id="JF160305" begin="300" fromJunction="J4" toJunction="J7" end="360" vehsPerHour="63.32773790187353" departLane="free"/>
  <flow id="JF160306" begin="300" fromJunction="J6" toJunction="J5" end="360" vehsPerHour="2.451711624278427" departLane="free"/>
  <flow id="JF160307" begin="300" fromJunction="J6" toJunction="J4" end="360" vehsPerHour="52.02969066591236" departLane="free"/>
  <flow id="JF160308" begin="300" fromJunction="J6" toJunction="J7" end="360" vehsPerHour="12.092969109383073" departLane="free"/>
  <flow id="JF160309" begin="300" fromJunction="J7" toJunction="J5" end="360" vehsPerHour="15.132629570379121" departLane="free"/>
  <flow id="JF160310" begin="300" fromJunction="J7" toJunction="J4" end="360" vehsPerHour="58.9654205549807" departLane="free"/>
  <flow id="JF160311" begin="300" fromJunction="J7" toJunction="J6" end="360" vehsPerHour="13.344576096337228" departLane="free"/>
  <flow id="JF160312" begin="300" fromJunction="J5" toJunction="J3" end="360" vehsPerHour="108.04179873731348" departLane="free"/>
  <flow id="JF160313" begin="300" fromJunction="J5" toJunction="J0" end="360" vehsPerHour="57.47209064137892" departLane="free"/>
  <flow id="JF160314" begin="300" fromJunction="J4" toJunction="J3" end="360" vehsPerHour="256.4374013203347" departLane="free"/>
  <flow id="JF160315" begin="300" fromJunction="J4" toJunction="J0" end="360" vehsPerHour="134.02849715468662" departLane="free"/>
  <flow id="JF160316" begin="300" fromJunction="J6" toJunction="J3" end="360" vehsPerHour="120.25755435091111" departLane="free"/>
  <flow id="JF160317" begin="300" fromJunction="J6" toJunction="J0" end="360" vehsPerHour="15.652113336334244" departLane="free"/>
  <flow id="JF160318" begin="300" fromJunction="J7" toJunction="J3" end="360" vehsPerHour="27.12419132948414" departLane="free"/>
  <flow id="JF160319" begin="300" fromJunction="J7" toJunction="J0" end="360" vehsPerHour="153.84124377306495" departLane="free"/>
  <flow id="JF160320" begin="360" fromJunction="J3" toJunction="J0" end="420" vehsPerHour="119.3940253353671" departLane="free"/>
  <flow id="JF160321" begin="360" fromJunction="J0" toJunction="J3" end="420" vehsPerHour="105.6122573660853" departLane="free"/>
  <flow id="JF160322" begin="360" fromJunction="J3" toJunction="J5" end="420" vehsPerHour="203.752959975402" departLane="free"/>
  <flow id="JF160323" begin="360" fromJunction="J3" toJunction="J4" end="420" vehsPerHour="87.48758946889411" departLane="free"/>
  <flow id="JF160324" begin="360" fromJunction="J3" toJunction="J6" end="420" vehsPerHour="59.174806307846744" departLane="free"/>
  <flow id="JF160325" begin="360" fromJunction="J3" toJunction="J7" end="420" vehsPerHour="308.6369438567712" departLane="free"/>
  <flow id="JF160326" begin="360" fromJunction="J0" toJunction="J5" end="420" vehsPerHour="135.90053881396736" departLane="free"/>
  <flow id="JF160327" begin="360" fromJunction="J0" toJunction="J4" end="420" vehsPerHour="117.04967136988056" departLane="free"/>
  <flow id="JF160328" begin="360" fromJunction="J0" toJunction="J6" end="420" vehsPerHour="42.676895793486096" departLane="free"/>
  <flow id="JF160329" begin="360" fromJunction="J0" toJunction="J7" end="420" vehsPerHour="298.54664744933905" departLane="free"/>
  <flow id="JF160330" begin="420" fromJunction="J3" toJunction="J0" end="480" vehsPerHour="85.88543306359024" departLane="free"/>
  <flow id="JF160331" begin="420" fromJunction="J0" toJunction="J3" end="480" vehsPerHour="101.15208999393614" departLane="free"/>
  <flow id="JF160332" begin="420" fromJunction="J3" toJunction="J5" end="480" vehsPerHour="284.23537923634234" departLane="free"/>
  <flow id="JF160333" begin="420" fromJunction="J3" toJunction="J4" end="480" vehsPerHour="504.0254989807812" departLane="free"/>
  <flow id="JF160334" begin="420" fromJunction="J3" toJunction="J6" end="480" vehsPerHour="175.87185232535788" departLane="free"/>
  <flow id="JF160335" begin="420" fromJunction="J3" toJunction="J7" end="480" vehsPerHour="444.29193041099285" departLane="free"/>
  <flow id="JF160336" begin="420" fromJunction="J0" toJunction="J5" end="480" vehsPerHour="108.1781904524412" departLane="free"/>
  <flow id="JF160337" begin="420" fromJunction="J0" toJunction="J4" end="480" vehsPerHour="351.76319540209215" departLane="free"/>
  <flow id="JF160338" begin="420" fromJunction="J0" toJunction="J6" end="480" vehsPerHour="91.53527824185277" departLane="free"/>
  <flow id="JF160339" begin="420" fromJunction="J0" toJunction="J7" end="480" vehsPerHour="191.42764796359137" departLane="free"/>
  <flow id="JF160340" begin="420" fromJunction="J5" toJunction="J4" end="480" vehsPerHour="19.57128898052757" departLane="free"/>
  <flow id="JF160341" begin="420" fromJunction="J5" toJunction="J6" end="480" vehsPerHour="1.128280055037501" departLane="free"/>
  <flow id="JF160342" begin="420" fromJunction="J5" toJunction="J7" end="480" vehsPerHour="28.980025984914334" departLane="free"/>
  <flow id="JF160343" begin="420" fromJunction="J4" toJunction="J5" end="480" vehsPerHour="60.460558032155305" departLane="free"/>
  <flow id="JF160344" begin="420" fromJunction="J4" toJunction="J6" end="480" vehsPerHour="4.311982688038116" departLane="free"/>
  <flow id="JF160345" begin="420" fromJunction="J4" toJunction="J7" end="480" vehsPerHour="21.843652741399175" departLane="free"/>
  <flow id="JF160346" begin="420" fromJunction="J6" toJunction="J5" end="480" vehsPerHour="59.38759085430231" departLane="free"/>
  <flow id="JF160347" begin="420" fromJunction="J6" toJunction="J4" end="480" vehsPerHour="21.94870939905665" departLane="free"/>
  <flow id="JF160348" begin="420" fromJunction="J6" toJunction="J7" end="480" vehsPerHour="34.082645718898824" departLane="free"/>
  <flow id="JF160349" begin="420" fromJunction="J7" toJunction="J5" end="480" vehsPerHour="18.64947534572604" departLane="free"/>
  <flow id="JF160350" begin="420" fromJunction="J7" toJunction="J4" end="480" vehsPerHour="47.78233111630405" departLane="free"/>
  <flow id="JF160351" begin="420" fromJunction="J7" toJunction="J6" end="480" vehsPerHour="3.4924404066600903" departLane="free"/>
  <flow id="JF160352" begin="420" fromJunction="J5" toJunction="J3" end="480" vehsPerHour="36.141620912879944" departLane="free"/>
  <flow id="JF160353" begin="420" fromJunction="J5" toJunction="J0" end="480" vehsPerHour="46.847696850582544" departLane="free"/>
  <flow id="JF160354" begin="420" fromJunction="J4" toJunction="J3" end="480" vehsPerHour="236.46825342010513" departLane="free"/>
  <flow id="JF160355" begin="420" fromJunction="J4" toJunction="J0" end="480" vehsPerHour="231.6188157301165" departLane="free"/>
  <flow id="JF160356" begin="420" fromJunction="J6" toJunction="J3" end="480" vehsPerHour="61.49664155713554" departLane="free"/>
  <flow id="JF160357" begin="420" fromJunction="J6" toJunction="J0" end="480" vehsPerHour="254.82201663394574" departLane="free"/>
  <flow id="JF160358" begin="420" fromJunction="J7" toJunction="J3" end="480" vehsPerHour="97.675872764488" departLane="free"/>
  <flow id="JF160359" begin="420" fromJunction="J7" toJunction="J0" end="480" vehsPerHour="70.81448562656671" departLane="free"/>
  <flow id="JF160360" begin="480" fromJunction="J3" toJunction="J0" end="540" vehsPerHour="27.464821977515925" departLane="free"/>
  <flow id="JF160361" begin="480" fromJunction="J0" toJunction="J3" end="540" vehsPerHour="121.24233576352611" departLane="free"/>
  <flow id="JF160362" begin="480" fromJunction="J3" toJunction="J5" end="540" vehsPerHour="342.893425804776" departLane="free"/>
  <flow id="JF160363" begin="480" fromJunction="J3" toJunction="J4" end="540" vehsPerHour="539.8908585098486" departLane="free"/>
  <flow id="JF160364" begin="480" fromJunction="J3" toJunction="J6" end="540" vehsPerHour="398.71334898574275" departLane="free"/>
  <flow id="JF160365" begin="480" fromJunction="J3" toJunction="J7" end="540" vehsPerHour="242.78506489387738" departLane="free"/>
  <flow id="JF160366" begin="480" fromJunction="J0" toJunction="J5" end="540" vehsPerHour="496.5403715381621" departLane="free"/>
  <flow id="JF160367" begin="480" fromJunction="J0" toJunction="J4" end="540" vehsPerHour="368.6890645201925" departLane="free"/>
  <flow id="JF160368" begin="480" fromJunction="J0" toJunction="J6" end="540" vehsPerHour="61.42725912116001" departLane="free"/>
  <flow id="JF160369" begin="480" fromJunction="J0" toJunction="J7" end="540" vehsPerHour="12.672951682297642" departLane="free"/>
  <flow id="JF160370" begin="480" fromJunction="J5" toJunction="J4" end="540" vehsPerHour="48.28164637340278" departLane="free"/>
  <flow id="JF160371" begin="480" fromJunction="J5" toJunction="J6" end="540" vehsPerHour="65.24087757512669" departLane="free"/>
  <flow id="JF160372" begin="480" fromJunction="J5" toJunction="J7" end="540" vehsPerHour="22.613378103881733" departLane="free"/>
  <flow id="JF160373" begin="480" fromJunction="J4" toJunction="J5" end="540" vehsPerHour="47.3666751854795" departLane="free"/>
  <flow id="JF160374" begin="480" fromJunction="J4" toJunction="J6" end="540" vehsPerHour="38.73970711057462" departLane="free"/>
  <flow id="JF160375" begin="480" fromJunction="J4" toJunction="J7" end="540" vehsPerHour="49.245380936898776" departLane="free"/>
  <flow id="JF160376" begin="480" fromJunction="J6" toJunction="J5" end="540" vehsPerHour="9.759184439414483" departLane="free"/>
  <flow id="JF160377" begin="480" fromJunction="J6" toJunction="J4" end="540" vehsPerHour="68.0146869129183" departLane="free"/>
  <flow id="JF160378" begin="480" fromJunction="J6" toJunction="J7" end="540" vehsPerHour="52.89046748952616" departLane="free"/>
  <flow id="JF160379" begin="480" fromJunction="J7" toJunction="J5" end="540" vehsPerHour="15.445369079892082" departLane="free"/>
  <flow id="JF160380" begin="480" fromJunction="J7" toJunction="J4" end="540" vehsPerHour="48.01418521822297" departLane="free"/>
  <flow id="JF160381" begin="480" fromJunction="J7" toJunction="J6" end="540" vehsPerHour="60.06458649023999" departLane="free"/>
  <flow id="JF160382" begin="480" fromJunction="J5" toJunction="J3" end="540" vehsPerHour="228.10966907047268" departLane="free"/>
  <flow id="JF160383" begin="480" fromJunction="J5" toJunction="J0" end="540" vehsPerHour="84.60092082929803" departLane="free"/>
  <flow id="JF160384" begin="480" fromJunction="J4" toJunction="J3" end="540" vehsPerHour="269.26651028460867" departLane="free"/>
  <flow id="JF160385" begin="480" fromJunction="J4" toJunction="J0" end="540" vehsPerHour="242.77555937711264" departLane="free"/>
  <flow id="JF160386" begin="480" fromJunction="J6" toJunction="J3" end="540" vehsPerHour="109.31693963759264" departLane="free"/>
  <flow id="JF160387" begin="480" fromJunction="J6" toJunction="J0" end="540" vehsPerHour="63.48453399670224" departLane="free"/>
  <flow id="JF160388" begin="480" fromJunction="J7" toJunction="J3" end="540" vehsPerHour="101.2228239134912" departLane="free"/>