<?xml version="1.0" encoding="UTF-8"?>
<routes xmlns:xsi="http://www.w3.org/2001/XMLSchema-instance" xsi:noNamespaceSchemaLocation="http://sumo.dlr.de/xsd/routes_file.xsd">
  <flow id="JF175780" begin="0" fromJunction="J3" toJunction="J0" end="60" vehsPerHour="12.184936239083926" departLane="free"/>
  <flow id="JF175781" begin="0" fromJunction="J0" toJunction="J3" end="60" vehsPerHour="102.53514662292825" departLane="free"/>
  <flow id="JF175782" begin="0" fromJunction="J3" toJunction="J5" end="60" vehsPerHour="44.68340133790053" departLane="free"/>
  <flow id="JF175783" begin="0" fromJunction="J3" toJunction="J4" end="60" vehsPerHour="246.0291313320571" departLane="free"/>
  <flow id="JF175784" begin="0" fromJunction="J3" toJunction="J6" end="60" vehsPerHour="258.5126419190792" departLane="free"/>
  <flow id="JF175785" begin="0" fromJunction="J3" toJunction="J7" end="60" vehsPerHour="313.3320154057691" departLane="free"/>
  <flow id="JF175786" begin="0" fromJunction="J0" toJunction="J5" end="60" vehsPerHour="527.9049292069398" departLane="free"/>
  <flow id="JF175787" begin="0" fromJunction="J0" toJunction="J4" end="60" vehsPerHour="536.488532306764" departLane="free"/>
  <flow id="JF175788" begin="0" fromJunction="J0" toJunction="J6" end="60" vehsPerHour="313.19059842903687" departLane="free"/>
  <flow id="JF175789" begin="0" fromJunction="J0" toJunction="J7" end="60" vehsPerHour="504.1140177123068" departLane="free"/>
  <flow id="JF175790" begin="0" fromJunction="J5" toJunction="J4" end="60" vehsPerHour="49.64142505785716" departLane="free"/>
  <flow id="JF175791" begin="0" fromJunction="J5" toJunction="J6" end="60" vehsPerHour="30.90126325257052" departLane="free"/>
  <flow id="JF175792" begin="0" fromJunction="J5" toJunction="J7" end="60" vehsPerHour="4.658445626737074" departLane="free"/>
  <flow id="JF175793" begin="0" fromJunction="J4" toJunction="J5" end="60" vehsPerHour="21.493296810115243" departLane="free"/>
  <flow id="JF175794" begin="0" fromJunction="J4" toJunction="J6" end="60" vehsPerHour="54.265917339627556" departLane="free"/>
  <flow id="JF175795" begin="0" fromJunction="J4" toJunction="J7" end="60" vehsPerHour="56.140450510161074" departLane="free"/>
  <flow id="JF175796" begin="0" fromJunction="J6" toJunction="J5" end="60" vehsPerHour="6.679716877624492" departLane="free"/>
  <flow id="JF175797" begin="0" fromJunction="J6" toJunction="J4" end="60" vehsPerHour="1.791666154846982" departLane="free"/>
  <flow id="JF175798" begin="0" fromJunction="J6" toJunction="J7" end="60" vehsPerHour="9.828191370080436" departLane="free"/>
  <flow id="JF175799" begin="0" fromJunction="J7" toJunction="J5" end="60" vehsPerHour="48.47846373107272" departLane="free"/>
  <flow id="JF175800" begin="0" fromJunction="J7" toJunction="J4" end="60" vehsPerHour="62.7548954323727" departLane="free"/>
  <flow id="JF175801" begin="0" fromJunction="J7" toJunction="J6" end="60" vehsPerHour="44.384908314654176" departLane="free"/>
  <flow id="JF175802" begin="0" fromJunction="J5" toJunction="J3" end="60" vehsPerHour="257.08124173170916" departLane="free"/>
  <flow id="JF175803" begin="0" fromJunction="J5" toJunction="J0" end="60" vehsPerHour="260.09573698500725" departLane="free"/>
  <flow id="JF175804" begin="0" fromJunction="J4" toJunction="J3" end="60" vehsPerHour="32.1116544255079" departLane="free"/>
  <flow id="JF175805" begin="0" fromJunction="J4" toJunction="J0" end="60" vehsPerHour="183.8909451364419" departLane="free"/>
  <flow id="JF175806" begin="0" fromJunction="J6" toJunction="J3" end="60" vehsPerHour="234.02608212332117" departLane="free"/>
  <flow id="JF175807" begin="0" fromJunction="J6" toJunction="J0" end="60" vehsPerHour="73.58574548854693" departLane="free"/>
  <flow id="JF175808" begin="0" fromJunction="J7" toJunction="J3" end="60" vehsPerHour="247.15907033718665" departLane="free"/>
  <flow id="JF175809" begin="0" fromJunction="J7" toJunction="J0" end="60" vehsPerHour="54.8543455148826" departLane="free"/>
  <flow id="JF175810" begin="60" fromJunction="J3" toJunction="J0" end="120" vehsPerHour="4.171502047634029" departLane="free"/>
  <flow id="JF175811" begin="60" fromJunction="J0" toJunction="J3" end="120" vehsPerHour="118.12182806126988" departLane="free"/>
  <flow id="JF175812" begin="60" fromJunction="J3" toJunction="J5" end="120" vehsPerHour="510.7008782189278" departLane="free"/>
  <flow id="JF175813" begin="60" fromJunction="J3" toJunction="J4" end="120" vehsPerHour="135.47166222094808" departLane="free"/>
  <flow id="JF175814" begin="60" fromJunction="J3" toJunction="J6" end="120" vehsPerHour="508.28925060083134" departLane="free"/>
  <flow id="JF175815" begin="60" fromJunction="J3" toJunction="J7" end="120" vehsPerHour="236.57182098053403" departLane="free"/>
  <flow id="JF175816" begin="60" fromJunction="J0" toJunction="J5" end="120" vehsPerHour="341.02601752915007" departLane="free"/>
  <flow id="JF175817" begin="60" fromJunction="J0" toJunction="J4" end="120" vehsPerHour="463.87798835234906" departLane="free"/>
  <flow id="JF175818" begin="60" fromJunction="J0" toJunction="J6" end="120" vehsPerHour="182.50781791293474" departLane="free"/>
  <flow id="JF175819" begin="60" fromJunction="J0" toJunction="J7" end="120" vehsPerHour="310.461877453396" departLane="free"/>
  <flow id="JF175820" begin="60" fromJunction="J5" toJunction="J4" end="120" vehsPerHour="45.081524239379846" departLane="free"/>
  <flow id="JF175821" begin="60" fromJunction="J5" toJunction="J6" end="120" vehsPerHour="42.623520212418875" departLane="free"/>
  <flow id="JF175822" begin="60" fromJunction="J5" toJunction="J7" end="120" vehsPerHour="23.888894926202575" departLane="free"/>
  <flow id="JF175823" begin="60" fromJunction="J4" toJunction="J5" end="120" vehsPerHour="62.30950905718295" departLane="free"/>
  <flow id="JF175824" begin="60" fromJunction="J4" toJunction="J6" end="120" vehsPerHour="30.804970966713007" departLane="free"/>
  <flow id="JF175825" begin="60" fromJunction="J4" toJunction="J7" end="120" vehsPerHour="39.18305790885198" departLane="free"/>
  <flow id="JF175826" begin="60" fromJunction="J6" toJunction="J5" end="120" vehsPerHour="68.47825297816273" departLane="free"/>
  <flow id="JF175827" begin="60" fromJunction="J6" toJunction="J4" end="120" vehsPerHour="53.78178626933041" departLane="free"/>
  <flow id="JF175828" begin="60" fromJunction="J6" toJunction="J7" end="120" vehsPerHour="20.325333374424552" departLane="free"/>
  <flow id="JF175829" begin="60" fromJunction="J7" toJunction="J5" end="120" vehsPerHour="57.25265672030382" departLane="free"/>
  <flow id="JF175830" begin="60" fromJunction="J7" toJunction="J4" end="120" vehsPerHour="48.13745986745294" departLane="free"/>
  <flow id="JF175831" begin="60" fromJunction="J7" toJunction="J6" end="120" vehsPerHour="48.93019494842832" departLane="free"/>
  <flow id="JF175832" begin="60" fromJunction="J5" toJunction="J3" end="120" vehsPerHour="71.7746639233037" departLane="free"/>
  <flow id="JF175833" begin="60" fromJunction="J5" toJunction="J0" end="120" vehsPerHour="67.35199733644212" departLane="free"/>
  <flow id="JF175834" begin="60" fromJunction="J4" toJunction="J3" end="120" vehsPerHour="53.95904857204133" departLane="free"/>
  <flow id="JF175835" begin="60" fromJunction="J4" toJunction="J0" end="120" vehsPerHour="79.50100629846554" departLane="free"/>
  <flow id="JF175836" begin="60" fromJunction="J6" toJunction="J3" end="120" vehsPerHour="167.25680733884982" departLane="free"/>
  <flow id="JF175837" begin="60" fromJunction="J6" toJunction="J0" end="120" vehsPerHour="57.89137198172156" departLane="free"/>
  <flow id="JF175838" begin="60" fromJunction="J7" toJunction="J3" end="120" vehsPerHour="177.06097949265026" departLane="free"/>
  <flow id="JF175839" begin="60" fromJunction="J7" toJunction="J0" end="120" vehsPerHour="69.18509715905164" departLane="free"/>
  <flow id="JF175840" begin="120" fromJunction="J3" toJunction="J0" end="180" vehsPerHour="28.284846971742105" departLane="free"/>
  <flow id="JF175841" begin="120" fromJunction="J0" toJunction="J3" end="180" vehsPerHour="94.97635060492662" departLane="free"/>
  <flow id="JF175842" begin="120" fromJunction="J3" toJunction="J5" end="180" vehsPerHour="370.6006240482527" departLane="free"/>
  <flow id="JF175843" begin="120" fromJunction="J3" toJunction="J4" end="180" vehsPerHour="358.6813034801868" departLane="free"/>
  <flow id="JF175844" begin="120" fromJunction="J3" toJunction="J6" end="180" vehsPerHour="539.4720505458603" departLane="free"/>
  <flow id="JF175845" begin="120" fromJunction="J3" toJunction="J7" end="180" vehsPerHour="35.30613338108813" departLane="free"/>
  <flow id="JF175846" begin="120" fromJunction="J0" toJunction="J5" end="180" vehsPerHour="275.03340161381533" departLane="free"/>
  <flow id="JF175847" begin="120" fromJunction="J0" toJunction="J4" end="180" vehsPerHour="13.295519732910108" departLane="free"/>
  <flow id="JF175848" begin="120" fromJunction="J0" toJunction="J6" end="180" vehsPerHour="61.87789350948094" departLane="free"/>
  <flow id="JF175849" begin="120" fromJunction="J0" toJunction="J7" end="180" vehsPerHour="413.41848535510576" departLane="free"/>
  <flow id="JF175850" begin="180" fromJunction="J3" toJunction="J0" end="240" vehsPerHour="132.56969795653737" departLane="free"/>
  <flow id="JF175851" begin="180" fromJunction="J0" toJunction="J3" end="240" vehsPerHour="113.93268666391805" departLane="free"/>
  <flow id="JF175852" begin="180" fromJunction="J3" toJunction="J5" end="240" vehsPerHour="491.82186304821624" departLane="free"/>
  <flow id="JF175853" begin="180" fromJunction="J3" toJunction="J4" end="240" vehsPerHour="73.20840699152775" departLane="free"/>
  <flow id="JF175854" begin="180" fromJunction="J3" toJunction="J6" end="240" vehsPerHour="362.02481775368074" departLane="free"/>
  <flow id="JF175855" begin="180" fromJunction="J3" toJunction="J7" end="240" vehsPerHour="342.19008797317514" departLane="free"/>
  <flow id="JF175856" begin="180" fromJunction="J0" toJunction="J5" end="240" vehsPerHour="518.5802448844825" departLane="free"/>
  <flow id="JF175857" begin="180" fromJunction="J0" toJunction="J4" end="240" vehsPerHour="316.0897097636844" departLane="free"/>
  <flow id="JF175858" begin="180" fromJunction="J0" toJunction="J6" end="240" vehsPerHour="90.92325710809749" departLane="free"/>
  <flow id="JF175859" begin="180" fromJunction="J0" toJunction="J7" end="240" vehsPerHour="303.8778487254413" departLane="free"/>
  <flow id="JF175860" begin="240" fromJunction="J3" toJunction="J0" end="300" vehsPerHour="132.40849245950912" departLane="free"/>
  <flow id="JF175861" begin="240" fromJunction="J0" toJunction="J3" end="300" vehsPerHour="0.5869127673517427" departLane="free"/>
  <flow id="JF175862" begin="240" fromJunction="J3" toJunction="J5" end="300" vehsPerHour="436.1290465966031" departLane="free"/>
  <flow id="JF175863" begin="240" fromJunction="J3" toJunction="J4" end="300" vehsPerHour="388.38531101273924" departLane="free"/>
  <flow id="JF175864" begin="240" fromJunction="J3" toJunction="J6" end="300" vehsPerHour="456.749186184427" departLane="free"/>
  <flow id="JF175865" begin="240" fromJunction="J3" toJunction="J7" end="300" vehsPerHour="65.91706428213965" departLane="free"/>
  <flow id="JF175866" begin="240" fromJunction="J0" toJunction="J5" end="300" vehsPerHour="435.5682219420972" departLane="free"/>
  <flow id="JF175867" begin="240" fromJunction="J0" toJunction="J4" end="300" vehsPerHour="527.4913175712563" departLane="free"/>
  <flow id="JF175868" begin="240" fromJunction="J0" toJunction="J6" end="300" vehsPerHour="150.16407747990232" departLane="free"/>
  <flow id="JF175869" begin="240" fromJunction="J0" toJunction="J7" end="300" vehsPerHour="288.7985504423157" departLane="free"/>
  <flow id="JF175870" begin="300" fromJunction="J3" toJunction="J0" end="360" vehsPerHour="82.07129243922559" departLane="free"/>
  <flow id="JF175871" begin="300" fromJunction="J0" toJunction="J3" end="360" vehsPerHour="12.211451645789518" departLane="free"/>
  <flow id="JF175872" begin="300" fromJunction="J3" toJunction="J5" end="360" vehsPerHour="94.26514134176044" departLane="free"/>
  <flow id="JF175873" begin="300" fromJunction="J3" toJunction="J4" end="360" vehsPerHour="247.40311637639826" departLane="free"/>
  <flow id="JF175874" begin="300" fromJunction="J3" toJunction="J6" end="360" vehsPerHour="395.4120734352604" departLane="free"/>
  <flow id="JF175875" begin="300" fromJunction="J3" toJunction="J7" end="360" vehsPerHour="149.7080379505785" departLane="free"/>
  <flow id="JF175876" begin="300" fromJunction="J0" toJunction="J5" end="360" vehsPerHour="403.9309245115961" departLane="free"/>
  <flow id="JF175877" begin="300" fromJunction="J0" toJunction="J4" end="360" vehsPerHour="488.6677035168746" departLane="free"/>
  <flow id="JF175878" begin="300" fromJunction="J0" toJunction="J6" end="360" vehsPerHour="325.06225934066697" departLane="free"/>
  <flow id="JF175879" begin="300" fromJunction="J0" toJunction="J7" end="360" vehsPerHour="119.73281262076299" departLane="free"/>
  <flow id="JF175880" begin="360" fromJunction="J3" toJunction="J0" end="420" vehsPerHour="119.984987476071" departLane="free"/>
  <flow id="JF175881" begin="360" fromJunction="J0" toJunction="J3" end="420" vehsPerHour="25.71368859007709" departLane="free"/>
  <flow id="JF175882" begin="360" fromJunction="J3" toJunction="J5" end="420" vehsPerHour="378.4942605328094" departLane="free"/>
  <flow id="JF175883" begin="360" fromJunction="J3" toJunction="J4" end="420" vehsPerHour="167.8412498511757" departLane="free"/>
  <flow id="JF175884" begin="360" fromJunction="J3" toJunction="J6" end="420" vehsPerHour="444.6274547452643" departLane="free"/>
  <flow id="JF175885" begin="360" fromJunction="J3" toJunction="J7" end="420" vehsPerHour="344.16638562570955" departLane="free"/>
  <flow id="JF175886" begin="360" fromJunction="J0" toJunction="J5" end="420" vehsPerHour="345.3119994544392" departLane="free"/>
  <flow id="JF175887" begin="360" fromJunction="J0" toJunction="J4" end="420" vehsPerHour="350.5061998638105" departLane="free"/>
  <flow id="JF175888" begin="360" fromJunction="J0" toJunction="J6" end="420" vehsPerHour="88.91726706664421" departLane="free"/>
  <flow id="JF175889" begin="360" fromJunction="J0" toJunction="J7" end="420" vehsPerHour="184.08135023698065" departLane="free"/>
  <flow id="JF175890" begin="360" fromJunction="J5" toJunction="J4" end="420" vehsPerHour="60.801588228192486" departLane="free"/>
  <flow id="JF175891" begin="360" fromJunction="J5" toJunction="J6" end="420" vehsPerHour="13.141019395901106" departLane="free"/>
  <flow id="JF175892" begin="360" fromJunction="J5" toJunction="J7" end="420" vehsPerHour="4.051091455984812" departLane="free"/>
  <flow id="JF175893" begin="360" fromJunction="J4" toJunction="J5" end="420" vehsPerHour="54.789297977281855" departLane="free"/>
  <flow id="JF175894" begin="360" fromJunction="J4" toJunction="J6" end="420" vehsPerHour="59.58116651147749" departLane="free"/>
  <flow id="JF175895" begin="360" fromJunction="J4" toJunction="J7" end="420" vehsPerHour="59.96516617690548" departLane="free"/>
  <flow id="JF175896" begin="360" fromJunction="J6" toJunction="J5" end="420" vehsPerHour="45.648117676528784" departLane="free"/>
  <flow id="JF175897" begin="360" fromJunction="J6" toJunction="J4" end="420" vehsPerHour="61.34951661098181" departLane="free"/>
  <flow id="JF175898" begin="360" fromJunction="J6" toJunction="J7" end="420" vehsPerHour="38.45900316604703" departLane="free"/>
  <flow id="JF175899" begin="360" fromJunction="J7" toJunction="J5" end="420" vehsPerHour="1.7395860236171785" departLane="free"/>
  <flow id="JF175900" begin="360" fromJunction="J7" toJunction="J4" end="420" vehsPerHour="9.23747836566081" departLane="free"/>
  <flow id="JF175901" begin="360" fromJunction="J7" toJunction="J6" end="420" vehsPerHour="16.465588445442844" departLane="free"/>
  <flow id="JF175902" begin="360" fromJunction="J5" toJunction="J3" end="420" vehsPerHour="110.68758966510993" departLane="free"/>
  <flow id="JF175903" begin="360" fromJunction="J5" toJunction="J0" end="420" vehsPerHour="265.369882742484" departLane="free"/>
  <flow id="JF175904" begin="360" fromJunction="J4" toJunction="J3" end="420" vehsPerHour="110.02702547019501" departLane="free"/>
  <flow id="JF175905" begin="360" fromJunction="J4" toJunction="J0" end="420" vehsPerHour="122.26018168326738" departLane="free"/>
  <flow id="JF175906" begin="360" fromJunction="J6" toJunction="J3" end="420" vehsPerHour="168.92940650706564" departLane="free"/>
  <flow id="JF175907" begin="360" fromJunction="J6" toJunction="J0" end="420" vehsPerHour="21.086507154676525" departLane="free"/>
  <flow id="JF175908" begin="360" fromJunction="J7" toJunction="J3" end="420" vehsPerHour="168.98262556680868" departLane="free"/>
  <flow id="JF175909" begin="360" fromJunction="J7" toJunction="J0" end="420" vehsPerHour="104.74846630435094" departLane="free"/>
  <flow id="JF175910" begin="420" fromJunction="J3" toJunction="J0" end="480" vehsPerHour="50.2340724917479" departLane="free"/>
  <flow id="JF175911" begin="420" fromJunction="J0" toJunction="J3" end="480" vehsPerHour="64.13874783477121" departLane="free"/>
  <flow id="JF175912" begin="420" fromJunction="J3" toJunction="J5" end="480" vehsPerHour="215.0878340493555" departLane="free"/>
  <flow id="JF175913" begin="420" fromJunction="J3" toJunction="J4" end="480" vehsPerHour="81.99314919948306" departLane="free"/>
  <flow id="JF175914" begin="420" fromJunction="J3" toJunction="J6" end="480" vehsPerHour="516.8987190140816" departLane="free"/>
  <flow id="JF175915" begin="420" fromJunction="J3" toJunction="J7" end="480" vehsPerHour="387.33238568669384" departLane="free"/>
  <flow id="JF175916" begin="420" fromJunction="J0" toJunction="J5" end="480" vehsPerHour="185.1854054452951" departLane="free"/>
  <flow id="JF175917" begin="420" fromJunction="J0" toJunction="J4" end="480" vehsPerHour="506.49397600923015" departLane="free"/>
  <flow id="JF175918" begin="420" fromJunction="J0" toJunction="J6" end="480" vehsPerHour="108.25896631558975" departLane="free"/>
  <flow id="JF175919" begin="420" fromJunction="J0" toJunction="J7" end="480" vehsPerHour="352.7566464911979" departLane="free"/>
  <flow id="JF175920" begin="420" fromJunction="J5" toJunction="J4" end="480" vehsPerHour="67.4216998701185" departLane="free"/>
  <flow id="JF175921" begin="420" fromJunction="J5" toJunction="J6" end="480" vehsPerHour="7.3143299549756735" departLane="free"/>
  <flow id="JF175922" begin="420" fromJunction="J5" toJunction="J7" end="480" vehsPerHour="8.442853655000986" departLane="free"/>
  <flow id="JF175923" begin="420" fromJunction="J4" toJunction="J5" end="480" vehsPerHour="56.472056255938206" departLane="free"/>
  <flow id="JF175924" begin="420" fromJunction="J4" toJunction="J6" end="480" vehsPerHour="64.46558309723113" departLane="free"/>
  <flow id="JF175925" begin="420" fromJunction="J4" toJunction="J7" end="480" vehsPerHour="17.132202551704115" departLane="free"/>
  <flow id="JF175926" begin="420" fromJunction="J6" toJunction="J5" end="480" vehsPerHour="51.36533315392408" departLane="free"/>
  <flow id="JF175927" begin="420" fromJunction="J6" toJunction="J4" end="480" vehsPerHour="2.5773224630378264" departLane="free"/>
  <flow id="JF175928" begin="420" fromJunction="J6" toJunction="J7" end="480" vehsPerHour="68.4368494072092" departLane="free"/>
  <flow id="JF175929" begin="420" fromJunction="J7" toJunction="J5" end="480" vehsPerHour="37.13601121893666" departLane="free"/>
  <flow id="JF175930" begin="420" fromJunction="J7" toJunction="J4" end="480" vehsPerHour="39.074815999936284" departLane="free"/>
  <flow id="JF175931" begin="420" fromJunction="J7" toJunction="J6" end="480" vehsPerHour="34.78317228492275" departLane="free"/>
  <flow id="JF175932" begin="420" fromJunction="J5" toJunction="J3" end="480" vehsPerHour="173.81001530409725" departLane="free"/>
  <flow id="JF175933" begin="420" fromJunction="J5" toJunction="J0" end="480" vehsPerHour="262.7788139892703" departLane="free"/>
  <flow id="JF175934" begin="420" fromJunction="J4" toJunction="J3" end="480" vehsPerHour="199.13991860920834" departLane="free"/>
  <flow id="JF175935" begin="420" fromJunction="J4" toJunction="J0" end="480" vehsPerHour="252.65889856253548" departLane="free"/>
  <flow id="JF175936" begin="420" fromJunction="J6" toJunction="J3" end="480" vehsPerHour="257.89663744108225" departLane="free"/>
  <flow id="JF175937" begin="420" fromJunction="J6" toJunction="J0" end="480" vehsPerHour="26.79659828981649" departLane="free"/>
  <flow id="JF175938" begin="420" fromJunction="J7" toJunction="J3" end="480" vehsPerHour="239.89386392095915" departLane="free"/>
  <flow id="JF175939" begin="420" fromJunction="J7" toJunction="J0" end="480" vehsPerHour="142.9849925912968" departLane="free"/>
  <flow id="JF175940" begin="480" fromJunction="J3" toJunction="J0" end="540" vehsPerHour="36.96028768830763" departLane="free"/>
  <flow id="JF175941" begin="480" fromJunction="J0" toJunction="J3" end="540" vehsPerHour="107.05712323467868" departLane="free"/>
  <flow id="JF175942" begin="480" fromJunction="J3" toJunction="J5" end="540" vehsPerHour="245.17357773077217" departLane="free"/>
  <flow id="JF175943" begin="480" fromJunction="J3" toJunction="J4" end="540" vehsPerHour="145.97794075582138" departLane="free"/>
  <flow id="JF175944" begin="480" fromJunction="J3" toJunction="J6" end="540" vehsPerHour="361.6205136088101" departLane="free"/>
  <flow id="JF175945" begin="480" fromJunction="J3" toJunction="J7" end="540" vehsPerHour="6.026245244147761" departLane="free"/>
  <flow id="JF175946" begin="480" fromJunction="J0" toJunction="J5" end="540" vehsPerHour="123.19123191496995" departLane="free"/>
  <flow id="JF175947" begin="480" fromJunction="J0" toJunction="J4" end="540" vehsPerHour="198.76666384132085" departLane="free"/>
  <flow id="JF175948" begin="480" fromJunction="J0" toJunction="J6" end="540" vehsPerHour="27.499132140322793" departLane="free"/>
  <flow id="JF175949" begin="480" fromJunction="J0" toJunction="J7" end="540" vehsPerHour="293.53006534034716" departLane="free"/>
  <flow id="JF175950" begin="540" fromJunction="J3" toJunction="J0" end="600" vehsPerHour="75.0396675396268" departLane="free"/>
  <flow id="JF175951" begin="540" fromJunction="J0" toJunction="J3" end="600" vehsPerHour="108.41815681918476" departLane="free"/>
  <flow id="JF175952" begin="540" fromJunction="J3" toJunction="J5" end="600" vehsPerHour="397.4888987613212" departLane="free"/>
  <flow id="JF175953" begin="540" fromJunction="J3" toJunction="J4" end="600" vehsPerHour="420.62093068925725" departLane="free"/>
  <flow id="JF175954" begin="540" fromJunction="J3" toJunction="J6" end="600" vehsPerHour="512.8074941718933" departLane="free"/>
  <flow id="JF175955" begin="540" fromJunction="J3" toJunction="J7" end="600" vehsPerHour="488.13007738861285" departLane="free"/>
  <flow id="JF175956" begin="540" fromJunction="J0" toJunction="J5" end="600" vehsPerHour="459.65812862648977" departLane="free"/>
  <flow id="JF175957" begin="540" fromJunction="J0" toJunction="J4" end="600" vehsPerHour="131.05696166445406" departLane="free"/>
  <flow id="JF175958" begin="540" fromJunction="J0" toJunction="J6" end="600" vehsPerHour="234.66339252986174" departLane="free"/>
  <flow id="JF175959" begin="540" fromJunction="J0" toJunction="J7" end="600" vehsPerHour="174.14375601858214" departLane="free"/>
  <flow id="JF175960" begin="540" fromJunction="J5" toJunction="J4" end="600" vehsPerHour="41.60239102231385" departLane="free"/>
  <flow id="JF175961" begin="540" fromJunction="J5" toJunction="J6" end="600" vehsPerHour="20.488024843524183" departLane="free"/>
  <flow id="JF175962" begin="540" fromJunction="J5" toJunction="J7" end="600" vehsPerHour="67.11765539544479" departLane="free"/>
  <flow id="JF175963" begin="540" fromJunction="J4" toJunction="J5" end="600" vehsPerHour="48.390125905977214" departLane="free"/>
  <flow id="JF175964" begin="540" fromJunction="J4" toJunction="J6" end="600" vehsPerHour="60.236154172793896" departLane="free"/>
  <flow id="JF175965" begin="540" fromJunction="J4" toJunction="J7" end="600" vehsPerHour="51.18380562732512" departLane="free"/>
  <flow id="JF175966" begin="540" fromJunction="J6" toJunction="J5" end="600" vehsPerHour="60.10661124386045" departLane="free"/>
  <flow id="JF175967" begin="540" fromJunction="J6" toJunction="J4" end="600" vehsPerHour="27.868486615094344" departLane="free"/>
  <flow id="JF175968" begin="540" fromJunction="J6" toJunction="J7" end="600" vehsPerHour="43.06681202275144" departLane="free"/>
  <flow id="JF175969" begin="540" fromJunction="J7" toJunction="J5" end="600" vehsPerHour="41.92289412003555" departLane="free"/>
  <flow id="JF175970" begin="540" fromJunction="J7" toJunction="J4" end="600" vehsPerHour="44.89347851254319" departLane="free"/>
  <flow id="JF175971" begin="540" fromJunction="J7" toJunction="J6" end="600" vehsPerHour="30.73668281490319" departLane="free"/>
  <flow id="JF175972" begin="540" fromJunction="J5" toJunction="J3" end="600" vehsPerHour="221.15175227216594" departLane="free"/>
  <flow id="JF175973" begin="540" fromJunction="J5" toJunction="J0" end="600" vehsPerHour="207.44988170244395" departLane="free"/>
  <flow id="JF175974" begin="540" fromJunction="J4" toJunction="J3" end="600" vehsPerHour="217.90797668536788" departLane="free"/>
  <flow id="JF175975" begin="540" fromJunction="J4" toJunction="J0" end="600" vehsPerHour="96.21235598333236" departLane="free"/>
  <flow id="JF175976" begin="540" fromJunction="J6" toJunction="J3" end="600" vehsPerHour="249.7095009694768" departLane="free"/>
  <flow id="JF175977" begin="540" fromJunction="J6" toJunction="J0" end="600" vehsPerHour="118.23538882505774" departLane="free"/>
  <flow id="JF175978" begin="540" fromJunction="J7" toJunction="J3" end="600" vehsPerHour="208.28441849418627" departLane="free"/>
  <flow id="JF175979" begin="540" fromJunction="J7" toJunction="J0" end="600" vehsPerHour="227.21705830269272" departLane="free"/>
  <flow id="JF175980" begin="600" fromJunction="J3" toJunction="J0" end="660" vehsPerHour="88.35316568453267" departLane="free"/>
  <flow id="JF175981" begin="600" fromJunction="J0" toJunction="J3" end="660" vehsPerHour="1.859928904210298" departLane="free"/>
  <flow id="JF175982" begin="600" fromJunction="J3" toJunction="J5" end="660" vehsPerHour="0.4647845354021103" departLane="free"/>
  <flow id="JF175983" begin="600" fromJunction="J3" toJunction="J4" end="660" vehsPerHour="64.81424876374432" departLane="free"/>
  <flow id="JF175984" begin="600" fromJunction="J3" toJunction="J6" end="660" vehsPerHour="133.264818400651" departLane="free"/>
  <flow id="JF175985" begin="600" fromJunction="J3" toJunction="J7" end="660" vehsPerHour="92.73170058619326" departLane="free"/>
  <flow id="JF175986" begin="600" fromJunction="J0" toJunction="J5" end="660" vehsPerHour="465.30063504336425" departLane="free"/>
  <flow id="JF175987" begin="600" fromJunction="J0" toJunction="J4" end="660" vehsPerHour="432.6221727619943" departLane="free"/>
  <flow id="JF175988" begin="600" fromJunction="J0" toJunction="J6" end="660" vehsPerHour="314.95055852353" departLane="free"/>
  <flow id="JF175989" begin="600" fromJunction="J0" toJunction="J7" end="660" vehsPerHour="548.122620562491" departLane="free"/>
  <flow id="JF175990" begin="600" fromJunction="J5" toJunction="J4" end="660" vehsPerHour="32.305319387825904" departLane="free"/>
  <flow id="JF175991" begin="600" fromJunction="J5" toJunction="J6" end="660" vehsPerHour="45.948566183736816" departLane="free"/>
  <flow id="JF175992" begin="600" fromJunction="J5" toJunction="J7" end="660" vehsPerHour="33.742220530469844" departLane="free"/>
  <flow id="JF175993" begin="600" fromJunction="J4" toJunction="J5" end="660" vehsPerHour="11.565189790730084" departLane="free"/>
  <flow id="JF175994" begin="600" fromJunction="J4" toJunction="J6" end="660" vehsPerHour="60.43622319341054" departLane="free"/>
  <flow id="JF175995" begin="600" fromJunction="J4" toJunction="J7" end="660" vehsPerHour="66.97265477323013" departLane="free"/>
  <flow id="JF175996" begin="600" fromJunction="J6" toJunction="J5" end="660" vehsPerHour="10.729888748374552" departLane="free"/>
  <flow id="JF175997" begin="600" fromJunction="J6" toJunction="J4" end="660" vehsPerHour="46.08114443210153" departLane="free"/>
  <flow id="JF175998" begin="600" fromJunction="J6" toJunction="J7" end="660" vehsPerHour="8.782299986062885" departLane="free"/>
  <flow id="JF175999" begin="600" fromJunction="J7" toJunction="J5" end="660" vehsPerHour="31.712626649202157" departLane="free"/>
  <flow id="JF176000" begin="600" fromJunction="J7" toJunction="J4" end="660" vehsPerHour="39.865245160234366" departLane="free"/>
  <flow id="JF176001" begin="600" fromJunction="J7" toJunction="J6" end="660" vehsPerHour="35.1435833655531" departLane="free"/>
  <flow id="JF176002" begin="600" fromJunction="J5" toJunction="J3" end="660" vehsPerHour="160.46492626281224" departLane="free"/>
  <flow id="JF176003" begin="600" fromJunction="J5" toJunction="J0" end="660" vehsPerHour="185.39983766621282" departLane="free"/>
  <flow id="JF176004" begin="600" fromJunction="J4" toJunction="J3" end="660" vehsPerHour="162.38017093895468" departLane="free"/>
  <flow id="JF176005" begin="600" fromJunction="J4" toJunction="J0" end="660" vehsPerHour="223.6895765327714" departLane="free"/>
  <flow id="JF176006" begin="600" fromJunction="J6" toJunction="J3" end="660" vehsPerHour="27.2985095547391" departLane="free"/>
  <flow id="JF176007" begin="600" fromJunction="J6" toJunction="J0" end="660" vehsPerHour="3.09414033120169" departLane="free"/>
  <flow id="JF176008" begin="600" fromJunction="J7" toJunction="J3" end="660" vehsPerHour="148.57825556878143" departLane="free"/>