<?xml version="1.0" encoding="UTF-8"?>
<routes xmlns:xsi="http://www.w3.org/2001/XMLSchema-instance" xsi:noNamespaceSchemaLocation="http://sumo.dlr.de/xsd/routes_file.xsd">
  <flow id="JF164320" begin="0" fromJunction="J3" toJunction="J0" end="60" vehsPerHour="9.842550367186279" departLane="free"/>
  <flow id="JF164321" begin="0" fromJunction="J0" toJunction="J3" end="60" vehsPerHour="15.114252906540496" departLane="free"/>
  <flow id="JF164322" begin="0" fromJunction="J3" toJunction="J5" end="60" vehsPerHour="142.5096471879216" departLane="free"/>
  <flow id="JF164323" begin="0" fromJunction="J3" toJunction="J4" end="60" vehsPerHour="538.8521421106493" departLane="free"/>
  <flow id="JF164324" begin="0" fromJunction="J3" toJunction="J6" end="60" vehsPerHour="110.08322583402766" departLane="free"/>
  <flow id="JF164325" begin="0" fromJunction="J3" toJunction="J7" end="60" vehsPerHour="491.0088396347736" departLane="free"/>
  <flow id="JF164326" begin="0" fromJunction="J0" toJunction="J5" end="60" vehsPerHour="261.4464294681571" departLane="free"/>
  <flow id="JF164327" begin="0" fromJunction="J0" toJunction="J4" end="60" vehsPerHour="110.12788515304132" departLane="free"/>
  <flow id="JF164328" begin="0" fromJunction="J0" toJunction="J6" end="60" vehsPerHour="98.97920770771287" departLane="free"/>
  <flow id="JF164329" begin="0" fromJunction="J0" toJunction="J7" end="60" vehsPerHour="429.4787231553889" departLane="free"/>
  <flow id="JF164330" begin="0" fromJunction="J5" toJunction="J4" end="60" vehsPerHour="8.514142367909962" departLane="free"/>
  <flow id="JF164331" begin="0" fromJunction="J5" toJunction="J6" end="60" vehsPerHour="59.33448144647843" departLane="free"/>
  <flow id="JF164332" begin="0" fromJunction="J5" toJunction="J7" end="60" vehsPerHour="43.78126584355811" departLane="free"/>
  <flow id="JF164333" begin="0" fromJunction="J4" toJunction="J5" end="60" vehsPerHour="7.948741129920879" departLane="free"/>
  <flow id="JF164334" begin="0" fromJunction="J4" toJunction="J6" end="60" vehsPerHour="11.59476400722435" departLane="free"/>
  <flow id="JF164335" begin="0" fromJunction="J4" toJunction="J7" end="60" vehsPerHour="53.89833774701052" departLane="free"/>
  <flow id="JF164336" begin="0" fromJunction="J6" toJunction="J5" end="60" vehsPerHour="13.073194728433338" departLane="free"/>
  <flow id="JF164337" begin="0" fromJunction="J6" toJunction="J4" end="60" vehsPerHour="56.5401335686326" departLane="free"/>
  <flow id="JF164338" begin="0" fromJunction="J6" toJunction="J7" end="60" vehsPerHour="57.59076411897825" departLane="free"/>
  <flow id="JF164339" begin="0" fromJunction="J7" toJunction="J5" end="60" vehsPerHour="13.442624907043735" departLane="free"/>
  <flow id="JF164340" begin="0" fromJunction="J7" toJunction="J4" end="60" vehsPerHour="26.547677192886713" departLane="free"/>
  <flow id="JF164341" begin="0" fromJunction="J7" toJunction="J6" end="60" vehsPerHour="48.742766228418915" departLane="free"/>
  <flow id="JF164342" begin="0" fromJunction="J5" toJunction="J3" end="60" vehsPerHour="144.73654847789692" departLane="free"/>
  <flow id="JF164343" begin="0" fromJunction="J5" toJunction="J0" end="60" vehsPerHour="197.79562237008142" departLane="free"/>
  <flow id="JF164344" begin="0" fromJunction="J4" toJunction="J3" end="60" vehsPerHour="60.874049971043476" departLane="free"/>
  <flow id="JF164345" begin="0" fromJunction="J4" toJunction="J0" end="60" vehsPerHour="1.640872325091799" departLane="free"/>
  <flow id="JF164346" begin="0" fromJunction="J6" toJunction="J3" end="60" vehsPerHour="94.75141612273232" departLane="free"/>
  <flow id="JF164347" begin="0" fromJunction="J6" toJunction="J0" end="60" vehsPerHour="151.67752827390532" departLane="free"/>
  <flow id="JF164348" begin="0" fromJunction="J7" toJunction="J3" end="60" vehsPerHour="211.74874202268634" departLane="free"/>
  <flow id="JF164349" begin="0" fromJunction="J7" toJunction="J0" end="60" vehsPerHour="168.54523052035776" departLane="free"/>
  <flow id="JF164350" begin="60" fromJunction="J3" toJunction="J0" end="120" vehsPerHour="70.30946485591662" departLane="free"/>
  <flow id="JF164351" begin="60" fromJunction="J0" toJunction="J3" end="120" vehsPerHour="12.534535252141968" departLane="free"/>
  <flow id="JF164352" begin="60" fromJunction="J3" toJunction="J5" end="120" vehsPerHour="53.456541427849764" departLane="free"/>
  <flow id="JF164353" begin="60" fromJunction="J3" toJunction="J4" end="120" vehsPerHour="288.8857291220485" departLane="free"/>
  <flow id="JF164354" begin="60" fromJunction="J3" toJunction="J6" end="120" vehsPerHour="381.27691663838067" departLane="free"/>
  <flow id="JF164355" begin="60" fromJunction="J3" toJunction="J7" end="120" vehsPerHour="9.57940750550795" departLane="free"/>
  <flow id="JF164356" begin="60" fromJunction="J0" toJunction="J5" end="120" vehsPerHour="123.8278131399108" departLane="free"/>
  <flow id="JF164357" begin="60" fromJunction="J0" toJunction="J4" end="120" vehsPerHour="403.03828678128383" departLane="free"/>
  <flow id="JF164358" begin="60" fromJunction="J0" toJunction="J6" end="120" vehsPerHour="88.79791539115675" departLane="free"/>
  <flow id="JF164359" begin="60" fromJunction="J0" toJunction="J7" end="120" vehsPerHour="196.88927418610865" departLane="free"/>
  <flow id="JF164360" begin="120" fromJunction="J3" toJunction="J0" end="180" vehsPerHour="51.70559915882951" departLane="free"/>
  <flow id="JF164361" begin="120" fromJunction="J0" toJunction="J3" end="180" vehsPerHour="53.76761234016191" departLane="free"/>
  <flow id="JF164362" begin="120" fromJunction="J3" toJunction="J5" end="180" vehsPerHour="357.39977455218644" departLane="free"/>
  <flow id="JF164363" begin="120" fromJunction="J3" toJunction="J4" end="180" vehsPerHour="463.16683856875085" departLane="free"/>
  <flow id="JF164364" begin="120" fromJunction="J3" toJunction="J6" end="180" vehsPerHour="140.6068590803691" departLane="free"/>
  <flow id="JF164365" begin="120" fromJunction="J3" toJunction="J7" end="180" vehsPerHour="427.2558716721451" departLane="free"/>
  <flow id="JF164366" begin="120" fromJunction="J0" toJunction="J5" end="180" vehsPerHour="175.14218691459638" departLane="free"/>
  <flow id="JF164367" begin="120" fromJunction="J0" toJunction="J4" end="180" vehsPerHour="363.149152643088" departLane="free"/>
  <flow id="JF164368" begin="120" fromJunction="J0" toJunction="J6" end="180" vehsPerHour="175.8104298256558" departLane="free"/>
  <flow id="JF164369" begin="120" fromJunction="J0" toJunction="J7" end="180" vehsPerHour="60.00271216635666" departLane="free"/>
  <flow id="JF164370" begin="120" fromJunction="J5" toJunction="J4" end="180" vehsPerHour="25.779319989043895" departLane="free"/>
  <flow id="JF164371" begin="120" fromJunction="J5" toJunction="J6" end="180" vehsPerHour="24.230279340451002" departLane="free"/>
  <flow id="JF164372" begin="120" fromJunction="J5" toJunction="J7" end="180" vehsPerHour="45.45014567163995" departLane="free"/>
  <flow id="JF164373" begin="120" fromJunction="J4" toJunction="J5" end="180" vehsPerHour="35.83866929522991" departLane="free"/>
  <flow id="JF164374" begin="120" fromJunction="J4" toJunction="J6" end="180" vehsPerHour="19.40793755427326" departLane="free"/>
  <flow id="JF164375" begin="120" fromJunction="J4" toJunction="J7" end="180" vehsPerHour="5.665526112543251" departLane="free"/>
  <flow id="JF164376" begin="120" fromJunction="J6" toJunction="J5" end="180" vehsPerHour="57.90682175327068" departLane="free"/>
  <flow id="JF164377" begin="120" fromJunction="J6" toJunction="J4" end="180" vehsPerHour="8.724955109825896" departLane="free"/>
  <flow id="JF164378" begin="120" fromJunction="J6" toJunction="J7" end="180" vehsPerHour="58.726500022689" departLane="free"/>
  <flow id="JF164379" begin="120" fromJunction="J7" toJunction="J5" end="180" vehsPerHour="36.24916974750413" departLane="free"/>
  <flow id="JF164380" begin="120" fromJunction="J7" toJunction="J4" end="180" vehsPerHour="19.564513957904893" departLane="free"/>
  <flow id="JF164381" begin="120" fromJunction="J7" toJunction="J6" end="180" vehsPerHour="42.21709085096273" departLane="free"/>
  <flow id="JF164382" begin="120" fromJunction="J5" toJunction="J3" end="180" vehsPerHour="144.94018425281163" departLane="free"/>
  <flow id="JF164383" begin="120" fromJunction="J5" toJunction="J0" end="180" vehsPerHour="237.40811413334956" departLane="free"/>
  <flow id="JF164384" begin="120" fromJunction="J4" toJunction="J3" end="180" vehsPerHour="89.12082898681882" departLane="free"/>
  <flow id="JF164385" begin="120" fromJunction="J4" toJunction="J0" end="180" vehsPerHour="17.45730814268678" departLane="free"/>
  <flow id="JF164386" begin="120" fromJunction="J6" toJunction="J3" end="180" vehsPerHour="62.836748203060985" departLane="free"/>
  <flow id="JF164387" begin="120" fromJunction="J6" toJunction="J0" end="180" vehsPerHour="196.0000982520935" departLane="free"/>
  <flow id="JF164388" begin="120" fromJunction="J7" toJunction="J3" end="180" vehsPerHour="240.5862393817022" departLane="free"/>
  <flow id="JF164389" begin="120" fromJunction="J7" toJunction="J0" end="180" vehsPerHour="252.29357800896776" departLane="free"/>
  <flow id="JF164390" begin="180" fromJunction="J3" toJunction="J0" end="240" vehsPerHour="93.60622110105615" departLane="free"/>
  <flow id="JF164391" begin="180" fromJunction="J0" toJunction="J3" end="240" vehsPerHour="3.770860859263414" departLane="free"/>
  <flow id="JF164392" begin="180" fromJunction="J3" toJunction="J5" end="240" vehsPerHour="63.72808555136396" departLane="free"/>
  <flow id="JF164393" begin="180" fromJunction="J3" toJunction="J4" end="240" vehsPerHour="1.2290005581808368" departLane="free"/>
  <flow id="JF164394" begin="180" fromJunction="J3" toJunction="J6" end="240" vehsPerHour="360.9979741198037" departLane="free"/>
  <flow id="JF164395" begin="180" fromJunction="J3" toJunction="J7" end="240" vehsPerHour="513.1445894872137" departLane="free"/>
  <flow id="JF164396" begin="180" fromJunction="J0" toJunction="J5" end="240" vehsPerHour="22.66440628534794" departLane="free"/>
  <flow id="JF164397" begin="180" fromJunction="J0" toJunction="J4" end="240" vehsPerHour="345.5687178390158" departLane="free"/>
  <flow id="JF164398" begin="180" fromJunction="J0" toJunction="J6" end="240" vehsPerHour="416.861407792921" departLane="free"/>
  <flow id="JF164399" begin="180" fromJunction="J0" toJunction="J7" end="240" vehsPerHour="20.3786426258226" departLane="free"/>
  <flow id="JF164400" begin="180" fromJunction="J5" toJunction="J4" end="240" vehsPerHour="40.96443864329671" departLane="free"/>
  <flow id="JF164401" begin="180" fromJunction="J5" toJunction="J6" end="240" vehsPerHour="38.69785121184718" departLane="free"/>
  <flow id="JF164402" begin="180" fromJunction="J5" toJunction="J7" end="240" vehsPerHour="18.29265592770064" departLane="free"/>
  <flow id="JF164403" begin="180" fromJunction="J4" toJunction="J5" end="240" vehsPerHour="54.12146264527836" departLane="free"/>
  <flow id="JF164404" begin="180" fromJunction="J4" toJunction="J6" end="240" vehsPerHour="35.68948443742709" departLane="free"/>
  <flow id="JF164405" begin="180" fromJunction="J4" toJunction="J7" end="240" vehsPerHour="19.47462374448514" departLane="free"/>
  <flow id="JF164406" begin="180" fromJunction="J6" toJunction="J5" end="240" vehsPerHour="53.93484196016192" departLane="free"/>
  <flow id="JF164407" begin="180" fromJunction="J6" toJunction="J4" end="240" vehsPerHour="5.651711527881124" departLane="free"/>
  <flow id="JF164408" begin="180" fromJunction="J6" toJunction="J7" end="240" vehsPerHour="65.57748495343353" departLane="free"/>
  <flow id="JF164409" begin="180" fromJunction="J7" toJunction="J5" end="240" vehsPerHour="34.70536743169103" departLane="free"/>
  <flow id="JF164410" begin="180" fromJunction="J7" toJunction="J4" end="240" vehsPerHour="43.931473670797956" departLane="free"/>
  <flow id="JF164411" begin="180" fromJunction="J7" toJunction="J6" end="240" vehsPerHour="17.75787707991749" departLane="free"/>
  <flow id="JF164412" begin="180" fromJunction="J5" toJunction="J3" end="240" vehsPerHour="204.50181772903048" departLane="free"/>
  <flow id="JF164413" begin="180" fromJunction="J5" toJunction="J0" end="240" vehsPerHour="261.62869252283036" departLane="free"/>
  <flow id="JF164414" begin="180" fromJunction="J4" toJunction="J3" end="240" vehsPerHour="209.73457858608685" departLane="free"/>
  <flow id="JF164415" begin="180" fromJunction="J4" toJunction="J0" end="240" vehsPerHour="129.43011331886694" departLane="free"/>
  <flow id="JF164416" begin="180" fromJunction="J6" toJunction="J3" end="240" vehsPerHour="174.8309492255339" departLane="free"/>
  <flow id="JF164417" begin="180" fromJunction="J6" toJunction="J0" end="240" vehsPerHour="169.65999318703078" departLane="free"/>
  <flow id="JF164418" begin="180" fromJunction="J7" toJunction="J3" end="240" vehsPerHour="59.92734210649255" departLane="free"/>
  <flow id="JF164419" begin="180" fromJunction="J7" toJunction="J0" end="240" vehsPerHour="44.167050436910856" departLane="free"/>
  <flow id="JF164420" begin="240" fromJunction="J3" toJunction="J0" end="300" vehsPerHour="91.04585522001153" departLane="free"/>
  <flow id="JF164421" begin="240" fromJunction="J0" toJunction="J3" end="300" vehsPerHour="117.23213845645051" departLane="free"/>
  <flow id="JF164422" begin="240" fromJunction="J3" toJunction="J5" end="300" vehsPerHour="316.14860711822894" departLane="free"/>
  <flow id="JF164423" begin="240" fromJunction="J3" toJunction="J4" end="300" vehsPerHour="290.73118489383285" departLane="free"/>
  <flow id="JF164424" begin="240" fromJunction="J3" toJunction="J6" end="300" vehsPerHour="412.2972034505138" departLane="free"/>
  <flow id="JF164425" begin="240" fromJunction="J3" toJunction="J7" end="300" vehsPerHour="451.0793178839484" departLane="free"/>
  <flow id="JF164426" begin="240" fromJunction="J0" toJunction="J5" end="300" vehsPerHour="278.39305889867865" departLane="free"/>
  <flow id="JF164427" begin="240" fromJunction="J0" toJunction="J4" end="300" vehsPerHour="178.4145583368391" departLane="free"/>
  <flow id="JF164428" begin="240" fromJunction="J0" toJunction="J6" end="300" vehsPerHour="100.55999194542179" departLane="free"/>
  <flow id="JF164429" begin="240" fromJunction="J0" toJunction="J7" end="300" vehsPerHour="452.58655752741726" departLane="free"/>
  <flow id="JF164430" begin="300" fromJunction="J3" toJunction="J0" end="360" vehsPerHour="66.00852751382455" departLane="free"/>
  <flow id="JF164431" begin="300" fromJunction="J0" toJunction="J3" end="360" vehsPerHour="86.81871354167343" departLane="free"/>
  <flow id="JF164432" begin="300" fromJunction="J3" toJunction="J5" end="360" vehsPerHour="344.1274247560923" departLane="free"/>
  <flow id="JF164433" begin="300" fromJunction="J3" toJunction="J4" end="360" vehsPerHour="57.067946291062" departLane="free"/>
  <flow id="JF164434" begin="300" fromJunction="J3" toJunction="J6" end="360" vehsPerHour="499.7708777866934" departLane="free"/>
  <flow id="JF164435" begin="300" fromJunction="J3" toJunction="J7" end="360" vehsPerHour="120.55762478153835" departLane="free"/>
  <flow id="JF164436" begin="300" fromJunction="J0" toJunction="J5" end="360" vehsPerHour="73.82002402938032" departLane="free"/>
  <flow id="JF164437" begin="300" fromJunction="J0" toJunction="J4" end="360" vehsPerHour="359.73782160489213" departLane="free"/>
  <flow id="JF164438" begin="300" fromJunction="J0" toJunction="J6" end="360" vehsPerHour="400.63090352072504" departLane="free"/>
  <flow id="JF164439" begin="300" fromJunction="J0" toJunction="J7" end="360" vehsPerHour="467.48476864077526" departLane="free"/>
  <flow id="JF164440" begin="300" fromJunction="J5" toJunction="J4" end="360" vehsPerHour="67.3874741671603" departLane="free"/>
  <flow id="JF164441" begin="300" fromJunction="J5" toJunction="J6" end="360" vehsPerHour="3.9204272619748903" departLane="free"/>
  <flow id="JF164442" begin="300" fromJunction="J5" toJunction="J7" end="360" vehsPerHour="4.916734169203041" departLane="free"/>
  <flow id="JF164443" begin="300" fromJunction="J4" toJunction="J5" end="360" vehsPerHour="65.38771753586572" departLane="free"/>
  <flow id="JF164444" begin="300" fromJunction="J4" toJunction="J6" end="360" vehsPerHour="37.16698434886108" departLane="free"/>
  <flow id="JF164445" begin="300" fromJunction="J4" toJunction="J7" end="360" vehsPerHour="39.24846301177329" departLane="free"/>
  <flow id="JF164446" begin="300" fromJunction="J6" toJunction="J5" end="360" vehsPerHour="56.869728034853104" departLane="free"/>
  <flow id="JF164447" begin="300" fromJunction="J6" toJunction="J4" end="360" vehsPerHour="16.995453811274402" departLane="free"/>
  <flow id="JF164448" begin="300" fromJunction="J6" toJunction="J7" end="360" vehsPerHour="8.908756290703826" departLane="free"/>
  <flow id="JF164449" begin="300" fromJunction="J7" toJunction="J5" end="360" vehsPerHour="53.571859441757816" departLane="free"/>
  <flow id="JF164450" begin="300" fromJunction="J7" toJunction="J4" end="360" vehsPerHour="19.289706434730775" departLane="free"/>
  <flow id="JF164451" begin="300" fromJunction="J7" toJunction="J6" end="360" vehsPerHour="19.826592137559185" departLane="free"/>
  <flow id="JF164452" begin="300" fromJunction="J5" toJunction="J3" end="360" vehsPerHour="17.112678524261465" departLane="free"/>
  <flow id="JF164453" begin="300" fromJunction="J5" toJunction="J0" end="360" vehsPerHour="139.28514427241757" departLane="free"/>
  <flow id="JF164454" begin="300" fromJunction="J4" toJunction="J3" end="360" vehsPerHour="74.37663905351319" departLane="free"/>
  <flow id="JF164455" begin="300" fromJunction="J4" toJunction="J0" end="360" vehsPerHour="113.96973346797192" departLane="free"/>
  <flow id="JF164456" begin="300" fromJunction="J6" toJunction="J3" end="360" vehsPerHour="266.6051792405182" departLane="free"/>
  <flow id="JF164457" begin="300" fromJunction="J6" toJunction="J0" end="360" vehsPerHour="51.07362205668118" departLane="free"/>
  <flow id="JF164458" begin="300" fromJunction="J7" toJunction="J3" end="360" vehsPerHour="229.05869197852127" departLane="free"/>
  <flow id="JF164459" begin="300" fromJunction="J7" toJunction="J0" end="360" vehsPerHour="27.526699076584475" departLane="free"/>
  <flow id="JF164460" begin="360" fromJunction="J3" toJunction="J0" end="420" vehsPerHour="111.47960796854981" departLane="free"/>
  <flow id="JF164461" begin="360" fromJunction="J0" toJunction="J3" end="420" vehsPerHour="61.167689472562294" departLane="free"/>
  <flow id="JF164462" begin="360" fromJunction="J3" toJunction="J5" end="420" vehsPerHour="80.61552129698583" departLane="free"/>
  <flow id="JF164463" begin="360" fromJunction="J3" toJunction="J4" end="420" vehsPerHour="214.35944635205342" departLane="free"/>
  <flow id="JF164464" begin="360" fromJunction="J3" toJunction="J6" end="420" vehsPerHour="55.94664244571429" departLane="free"/>
  <flow id="JF164465" begin="360" fromJunction="J3" toJunction="J7" end="420" vehsPerHour="237.23210488393713" departLane="free"/>
  <flow id="JF164466" begin="360" fromJunction="J0" toJunction="J5" end="420" vehsPerHour="369.2224807316463" departLane="free"/>
  <flow id="JF164467" begin="360" fromJunction="J0" toJunction="J4" end="420" vehsPerHour="444.4152910575338" departLane="free"/>
  <flow id="JF164468" begin="360" fromJunction="J0" toJunction="J6" end="420" vehsPerHour="109.72549745494206" departLane="free"/>
  <flow id="JF164469" begin="360" fromJunction="J0" toJunction="J7" end="420" vehsPerHour="89.4716806188584" departLane="free"/>
  <flow id="JF164470" begin="360" fromJunction="J5" toJunction="J4" end="420" vehsPerHour="65.4026448344404" departLane="free"/>
  <flow id="JF164471" begin="360" fromJunction="J5" toJunction="J6" end="420" vehsPerHour="67.58122635560258" departLane="free"/>
  <flow id="JF164472" begin="360" fromJunction="J5" toJunction="J7" end="420" vehsPerHour="16.4885549269975" departLane="free"/>
  <flow id="JF164473" begin="360" fromJunction="J4" toJunction="J5" end="420" vehsPerHour="51.436571914495524" departLane="free"/>
  <flow id="JF164474" begin="360" fromJunction="J4" toJunction="J6" end="420" vehsPerHour="33.047587067667976" departLane="free"/>
  <flow id="JF164475" begin="360" fromJunction="J4" toJunction="J7" end="420" vehsPerHour="15.240991348821339" departLane="free"/>
  <flow id="JF164476" begin="360" fromJunction="J6" toJunction="J5" end="420" vehsPerHour="8.725981245547187" departLane="free"/>
  <flow id="JF164477" begin="360" fromJunction="J6" toJunction="J4" end="420" vehsPerHour="63.209430947102064" departLane="free"/>
  <flow id="JF164478" begin="360" fromJunction="J6" toJunction="J7" end="420" vehsPerHour="64.06435611301936" departLane="free"/>
  <flow id="JF164479" begin="360" fromJunction="J7" toJunction="J5" end="420" vehsPerHour="35.12664412481185" departLane="free"/>
  <flow id="JF164480" begin="360" fromJunction="J7" toJunction="J4" end="420" vehsPerHour="40.9411678830402" departLane="free"/>
  <flow id="JF164481" begin="360" fromJunction="J7" toJunction="J6" end="420" vehsPerHour="37.44623080326078" departLane="free"/>
  <flow id="JF164482" begin="360" fromJunction="J5" toJunction="J3" end="420" vehsPerHour="130.22990205240853" departLane="free"/>
  <flow id="JF164483" begin="360" fromJunction="J5" toJunction="J0" end="420" vehsPerHour="149.97610751359414" departLane="free"/>
  <flow id="JF164484" begin="360" fromJunction="J4" toJunction="J3" end="420" vehsPerHour="240.76896852429485" departLane="free"/>
  <flow id="JF164485" begin="360" fromJunction="J4" toJunction="J0" end="420" vehsPerHour="53.070366365190075" departLane="free"/>
  <flow id="JF164486" begin="360" fromJunction="J6" toJunction="J3" end="420" vehsPerHour="77.67839721303562" departLane="free"/>
  <flow id="JF164487" begin="360" fromJunction="J6" toJunction="J0" end="420" vehsPerHour="245.40637871341835" departLane="free"/>
  <flow id="JF164488" begin="360" fromJunction="J7" toJunction="J3" end="420" vehsPerHour="215.415556839386" departLane="free"/>
  <flow id="JF164489" begin="360" fromJunction="J7" toJunction="J0" end="420" vehsPerHour="110.74335376590555" departLane="free"/>
  <flow id="JF164490" begin="420" fromJunction="J3" toJunction="J0" end="480" vehsPerHour="6.360095726867105" departLane="free"/>
  <flow id="JF164491" begin="420" fromJunction="J0" toJunction="J3" end="480" vehsPerHour="100.3720799376585" departLane="free"/>
  <flow id="JF164492" begin="420" fromJunction="J3" toJunction="J5" end="480" vehsPerHour="355.50908734334985" departLane="free"/>
  <flow id="JF164493" begin="420" fromJunction="J3" toJunction="J4" end="480" vehsPerHour="519.4482429810697" departLane="free"/>
  <flow id="JF164494" begin="420" fromJunction="J3" toJunction="J6" end="480" vehsPerHour="20.92427756800282" departLane="free"/>
  <flow id="JF164495" begin="420" fromJunction="J3" toJunction="J7" end="480" vehsPerHour="454.14622409402614" departLane="free"/>
  <flow id="JF164496" begin="420" fromJunction="J0" toJunction="J5" end="480" vehsPerHour="410.44679123718623" departLane="free"/>
  <flow id="JF164497" begin="420" fromJunction="J0" toJunction="J4" end="480" vehsPerHour="360.47483282028963" departLane="free"/>
  <flow id="JF164498" begin="420" fromJunction="J0" toJunction="J6" end="480" vehsPerHour="129.49599340758618" departLane="free"/>
  <flow id="JF164499" begin="420" fromJunction="J0" toJunction="J7" end="480" vehsPerHour="386.1168226544104" departLane="free"/>
  <flow id="JF164500" begin="480" fromJunction="J3" toJunction="J0" end="540" vehsPerHour="28.89705695355828" departLane="free"/>
  <flow id="JF164501" begin="480" fromJunction="J0" toJunction="J3" end="540" vehsPerHour="65.8100313945178" departLane="free"/>
  <flow id="JF164502" begin="480" fromJunction="J3" toJunction="J5" end="540" vehsPerHour="428.7732617848785" departLane="free"/>
  <flow id="JF164503" begin="480" fromJunction="J3" toJunction="J4" end="540" vehsPerHour="45.81568869762247" departLane="free"/>
  <flow id="JF164504" begin="480" fromJunction="J3" toJunction="J6" end="540" vehsPerHour="278.874662146223" departLane="free"/>
  <flow id="JF164505" begin="480" fromJunction="J3" toJunction="J7" end="540" vehsPerHour="413.39228607989463" departLane="free"/>
  <flow id="JF164506" begin="480" fromJunction="J0" toJunction="J5" end="540" vehsPerHour="452.88530965170116" departLane="free"/>
  <flow id="JF164507" begin="480" fromJunction="J0" toJunction="J4" end="540" vehsPerHour="114.31834242402793" departLane="free"/>
  <flow id="JF164508" begin="480" fromJunction="J0" toJunction="J6" end="540" vehsPerHour="421.90542340387844" departLane="free"/>
  <flow id="JF164509" begin="480" fromJunction="J0" toJunction="J7" end="540" vehsPerHour="329.76607888604786" departLane="free"/>
  <flow id="JF164510" begin="540" fromJunction="J3" toJunction="J0" end="600" vehsPerHour="56.46366304124364" departLane="free"/>
  <flow id="JF164511" begin="540" fromJunction="J0" toJunction="J3" end="600" vehsPerHour="82.37871573653867" departLane="free"/>
  <flow id="JF164512" begin="540" fromJunction="J3" toJunction="J5" end="600" vehsPerHour="46.88583720861178" departLane="free"/>
  <flow id="JF164513" begin="540" fromJunction="J3" toJunction="J4" end="600" vehsPerHour="403.85647338586205" departLane="free"/>
  <flow id="JF164514" begin="540" fromJunction="J3" toJunction="J6" end="600" vehsPerHour="213.9448612677044" departLane="free"/>
  <flow id="JF164515" begin="540" fromJunction="J3" toJunction="J7" end="600" vehsPerHour="135.77469780887586" departLane="free"/>
  <flow id="JF164516" begin="540" fromJunction="J0" toJunction="J5" end="600" vehsPerHour="3.7303802676599256" departLane="free"/>
  <flow id="JF164517" begin="540" fromJunction="J0" toJunction="J4" end="600" vehsPerHour="61.03741064084874" departLane="free"/>
  <flow id="JF164518" begin="540" fromJunction="J0" toJunction="J6" end="600" vehsPerHour="293.6701215484986" departLane="free"/>
  <flow id="JF164519" begin="540" fromJunction="J0" toJunction="J7" end="600" vehsPerHour="82.85449166937296" departLane="free"/>
  <flow id="JF164520" begin="540" fromJunction="J5" toJunction="J4" end="600" vehsPerHour="58.740188028628445" departLane="free"/>
  <flow id="JF164521" begin="540" fromJunction="J5" toJunction="J6" end="600" vehsPerHour="34.86713696933818" departLane="free"/>
  <flow id="JF164522" begin="540" fromJunction="J5" toJunction="J7" end="600" vehsPerHour="34.71903168281788" departLane="free"/>
  <flow id="JF164523" begin="540" fromJunction="J4" toJunction="J5" end="600" vehsPerHour="51.252187602245364" departLane="free"/>
  <flow id="JF164524" begin="540" fromJunction="J4" toJunction="J6" end="600" vehsPerHour="36.06795969830215" departLane="free"/>
  <flow id="JF164525" begin="540" fromJunction="J4" toJunction="J7" end="600" vehsPerHour="8.840771614560595" departLane="free"/>
  <flow id="JF164526" begin="540" fromJunction="J6" toJunction="J5" end="600" vehsPerHour="54.647764942108786" departLane="free"/>
  <flow id="JF164527" begin="540" fromJunction="J6" toJunction="J4" end="600" vehsPerHour="37.24586584586708" departLane="free"/>
  <flow id="JF164528" begin="540" fromJunction="J6" toJunction="J7" end="600" vehsPerHour="16.270222768897284" departLane="free"/>
  <flow id="JF164529" begin="540" fromJunction="J7" toJunction="J5" end="600" vehsPerHour="14.026370642167732" departLane="free"/>
  <flow id="JF164530" begin="540" fromJunction="J7" toJunction="J4" end="600" vehsPerHour="64.99437438605953" departLane="free"/>
  <flow id="JF164531" begin="540" fromJunction="J7" toJunction="J6" end="600" vehsPerHour="68.62003065277129" departLane="free"/>
  <flow id="JF164532" begin="540" fromJunction="J5" toJunction="J3" end="600" vehsPerHour="54.38561199113153" departLane="free"/>
  <flow id="JF164533" begin="540" fromJunction="J5" toJunction="J0" end="600" vehsPerHour="38.95941479535321" departLane="free"/>
  <flow id="JF164534" begin="540" fromJunction="J4" toJunction="J3" end="600" vehsPerHour="156.74437354468697" departLane="free"/>
  <flow id="JF164535" begin="540" fromJunction="J4" toJunction="J0" end="600" vehsPerHour="93.48212809179434" departLane="free"/>
  <flow id="JF164536" begin="540" fromJunction="J6" toJunction="J3" end="600" vehsPerHour="37.807148225836265" departLane="free"/>
  <flow id="JF164537" begin="540" fromJunction="J6" toJunction="J0" end="600" vehsPerHour="62.7924326008783" departLane="free"/>
  <flow id="JF164538" begin="540" fromJunction="J7" toJunction="J3" end="600" vehsPerHour="225.8200954890492" departLane="free"/>
  <flow id="JF164539" begin="540" fromJunction="J7" toJunction="J0" end="600" vehsPerHour="112.94420130497556" departLane="free"/>
  <flow id="JF164540" begin="600" fromJunction="J3" toJunction="J0" end="660" vehsPerHour="114.81458788615618" departLane="free"/>
  <flow id="JF164541" begin="600" fromJunction="J0" toJunction="J3" end="660" vehsPerHour="96.69071686885034" departLane="free"/>
  <flow id="JF164542" begin="600" fromJunction="J3" toJunction="J5" end="660" vehsPerHour="395.97788790061117" departLane="free"/>
  <flow id="JF164543" begin="600" fromJunction="J3" toJunction="J4" end="660" vehsPerHour="404.4969285448624" departLane="free"/>
  <flow id="JF164544" begin="600" fromJunction="J3" toJunction="J6" end="660" vehsPerHour="153.76938624549194" departLane="free"/>
  <flow id="JF164545" begin="600" fromJunction="J3" toJunction="J7" end="660" vehsPerHour="161.0945959717525" departLane="free"/>
  <flow id="JF164546" begin="600" fromJunction="J0" toJunction="J5" end="660" vehsPerHour="163.6103472999913" departLane="free"/>
  <flow id="JF164547" begin="600" fromJunction="J0" toJunction="J4" end="660" vehsPerHour="244.65361162163524" departLane="free"/>
  <flow id="JF164548" begin="600" fromJunction="J0" toJunction="J6" end="660" vehsPerHour="277.53440242945015" departLane="free"/>