<?xml version="1.0" encoding="UTF-8"?>
<routes xmlns:xsi="http://www.w3.org/2001/XMLSchema-instance" xsi:noNamespaceSchemaLocation="http://sumo.dlr.de/xsd/routes_file.xsd">
  <flow id="JF168040" begin="0" fromJunction="J3" toJunction="J0" end="60" vehsPerHour="96.91397239140095" departLane="free"/>
  <flow id="JF168041" begin="0" fromJunction="J0" toJunction="J3" end="60" vehsPerHour="121.9909879401446" departLane="free"/>
  <flow id="JF168042" begin="0" fromJunction="J3" toJunction="J5" end="60" vehsPerHour="9.47265309830954" departLane="free"/>
  <flow id="JF168043" begin="0" fromJunction="J3" toJunction="J4" end="60" vehsPerHour="394.4146860685354" departLane="free"/>
  <flow id="JF168044" begin="0" fromJunction="J3" toJunction="J6" end="60" vehsPerHour="41.597648099325696" departLane="free"/>
  <flow id="JF168045" begin="0" fromJunction="J3" toJunction="J7" end="60" vehsPerHour="372.7187935165163" departLane="free"/>
  <flow id="JF168046" begin="0" fromJunction="J0" toJunction="J5" end="60" vehsPerHour="370.1491413710895" departLane="free"/>
  <flow id="JF168047" begin="0" fromJunction="J0" toJunction="J4" end="60" vehsPerHour="226.0140721588957" departLane="free"/>
  <flow id="JF168048" begin="0" fromJunction="J0" toJunction="J6" end="60" vehsPerHour="164.09701516602573" departLane="free"/>
  <flow id="JF168049" begin="0" fromJunction="J0" toJunction="J7" end="60" vehsPerHour="297.56635325602633" departLane="free"/>
  <flow id="JF168050" begin="0" fromJunction="J5" toJunction="J4" end="60" vehsPerHour="45.68859553051502" departLane="free"/>
  <flow id="JF168051" begin="0" fromJunction="J5" toJunction="J6" end="60" vehsPerHour="43.331486021217586" departLane="free"/>
  <flow id="JF168052" begin="0" fromJunction="J5" toJunction="J7" end="60" vehsPerHour="4.193394385771054" departLane="free"/>
  <flow id="JF168053" begin="0" fromJunction="J4" toJunction="J5" end="60" vehsPerHour="61.36790640723908" departLane="free"/>
  <flow id="JF168054" begin="0" fromJunction="J4" toJunction="J6" end="60" vehsPerHour="51.42688440133639" departLane="free"/>
  <flow id="JF168055" begin="0" fromJunction="J4" toJunction="J7" end="60" vehsPerHour="17.388640150852506" departLane="free"/>
  <flow id="JF168056" begin="0" fromJunction="J6" toJunction="J5" end="60" vehsPerHour="0.39722577828735134" departLane="free"/>
  <flow id="JF168057" begin="0" fromJunction="J6" toJunction="J4" end="60" vehsPerHour="45.41597166813737" departLane="free"/>
  <flow id="JF168058" begin="0" fromJunction="J6" toJunction="J7" end="60" vehsPerHour="42.745426892465595" departLane="free"/>
  <flow id="JF168059" begin="0" fromJunction="J7" toJunction="J5" end="60" vehsPerHour="51.460838708302035" departLane="free"/>
  <flow id="JF168060" begin="0" fromJunction="J7" toJunction="J4" end="60" vehsPerHour="38.40616685352094" departLane="free"/>
  <flow id="JF168061" begin="0" fromJunction="J7" toJunction="J6" end="60" vehsPerHour="1.383035908150466" departLane="free"/>
  <flow id="JF168062" begin="0" fromJunction="J5" toJunction="J3" end="60" vehsPerHour="214.129380254048" departLane="free"/>
  <flow id="JF168063" begin="0" fromJunction="J5" toJunction="J0" end="60" vehsPerHour="180.55386449473184" departLane="free"/>
  <flow id="JF168064" begin="0" fromJunction="J4" toJunction="J3" end="60" vehsPerHour="24.56719086266863" departLane="free"/>
  <flow id="JF168065" begin="0" fromJunction="J4" toJunction="J0" end="60" vehsPerHour="243.90417279423235" departLane="free"/>
  <flow id="JF168066" begin="0" fromJunction="J6" toJunction="J3" end="60" vehsPerHour="141.6531597205596" departLane="free"/>
  <flow id="JF168067" begin="0" fromJunction="J6" toJunction="J0" end="60" vehsPerHour="67.64391650682781" departLane="free"/>
  <flow id="JF168068" begin="0" fromJunction="J7" toJunction="J3" end="60" vehsPerHour="169.53057571802805" departLane="free"/>
  <flow id="JF168069" begin="0" fromJunction="J7" toJunction="J0" end="60" vehsPerHour="127.84261335617579" departLane="free"/>
  <flow id="JF168070" begin="60" fromJunction="J3" toJunction="J0" end="120" vehsPerHour="60.50359509625421" departLane="free"/>
  <flow id="JF168071" begin="60" fromJunction="J0" toJunction="J3" end="120" vehsPerHour="21.88852725866177" departLane="free"/>
  <flow id="JF168072" begin="60" fromJunction="J3" toJunction="J5" end="120" vehsPerHour="256.54892588607834" departLane="free"/>
  <flow id="JF168073" begin="60" fromJunction="J3" toJunction="J4" end="120" vehsPerHour="495.8711071448152" departLane="free"/>
  <flow id="JF168074" begin="60" fromJunction="J3" toJunction="J6" end="120" vehsPerHour="92.54402294653944" departLane="free"/>
  <flow id="JF168075" begin="60" fromJunction="J3" toJunction="J7" end="120" vehsPerHour="420.8012915046428" departLane="free"/>
  <flow id="JF168076" begin="60" fromJunction="J0" toJunction="J5" end="120" vehsPerHour="248.82594608275596" departLane="free"/>
  <flow id="JF168077" begin="60" fromJunction="J0" toJunction="J4" end="120" vehsPerHour="307.8976968803607" departLane="free"/>
  <flow id="JF168078" begin="60" fromJunction="J0" toJunction="J6" end="120" vehsPerHour="113.08296892398998" departLane="free"/>
  <flow id="JF168079" begin="60" fromJunction="J0" toJunction="J7" end="120" vehsPerHour="364.6193245729648" departLane="free"/>
  <flow id="JF168080" begin="120" fromJunction="J3" toJunction="J0" end="180" vehsPerHour="83.57547083702043" departLane="free"/>
  <flow id="JF168081" begin="120" fromJunction="J0" toJunction="J3" end="180" vehsPerHour="81.84188204110673" departLane="free"/>
  <flow id="JF168082" begin="120" fromJunction="J3" toJunction="J5" end="180" vehsPerHour="234.16231925395064" departLane="free"/>
  <flow id="JF168083" begin="120" fromJunction="J3" toJunction="J4" end="180" vehsPerHour="427.73023006268687" departLane="free"/>
  <flow id="JF168084" begin="120" fromJunction="J3" toJunction="J6" end="180" vehsPerHour="199.2353575766767" departLane="free"/>
  <flow id="JF168085" begin="120" fromJunction="J3" toJunction="J7" end="180" vehsPerHour="248.63258370146116" departLane="free"/>
  <flow id="JF168086" begin="120" fromJunction="J0" toJunction="J5" end="180" vehsPerHour="256.4532195799268" departLane="free"/>
  <flow id="JF168087" begin="120" fromJunction="J0" toJunction="J4" end="180" vehsPerHour="421.7195665428293" departLane="free"/>
  <flow id="JF168088" begin="120" fromJunction="J0" toJunction="J6" end="180" vehsPerHour="6.7954175402903925" departLane="free"/>
  <flow id="JF168089" begin="120" fromJunction="J0" toJunction="J7" end="180" vehsPerHour="411.69671820867535" departLane="free"/>
  <flow id="JF168090" begin="120" fromJunction="J5" toJunction="J4" end="180" vehsPerHour="25.288104719944005" departLane="free"/>
  <flow id="JF168091" begin="120" fromJunction="J5" toJunction="J6" end="180" vehsPerHour="12.776887364692755" departLane="free"/>
  <flow id="JF168092" begin="120" fromJunction="J5" toJunction="J7" end="180" vehsPerHour="27.37678178177619" departLane="free"/>
  <flow id="JF168093" begin="120" fromJunction="J4" toJunction="J5" end="180" vehsPerHour="47.848611276502616" departLane="free"/>
  <flow id="JF168094" begin="120" fromJunction="J4" toJunction="J6" end="180" vehsPerHour="19.477347873670954" departLane="free"/>
  <flow id="JF168095" begin="120" fromJunction="J4" toJunction="J7" end="180" vehsPerHour="27.40578660454166" departLane="free"/>
  <flow id="JF168096" begin="120" fromJunction="J6" toJunction="J5" end="180" vehsPerHour="61.034112536898675" departLane="free"/>
  <flow id="JF168097" begin="120" fromJunction="J6" toJunction="J4" end="180" vehsPerHour="4.862927888042217" departLane="free"/>
  <flow id="JF168098" begin="120" fromJunction="J6" toJunction="J7" end="180" vehsPerHour="23.94395012004271" departLane="free"/>
  <flow id="JF168099" begin="120" fromJunction="J7" toJunction="J5" end="180" vehsPerHour="47.72364942217121" departLane="free"/>
  <flow id="JF168100" begin="120" fromJunction="J7" toJunction="J4" end="180" vehsPerHour="49.85558657369701" departLane="free"/>
  <flow id="JF168101" begin="120" fromJunction="J7" toJunction="J6" end="180" vehsPerHour="12.83473325424447" departLane="free"/>
  <flow id="JF168102" begin="120" fromJunction="J5" toJunction="J3" end="180" vehsPerHour="166.14532473572572" departLane="free"/>
  <flow id="JF168103" begin="120" fromJunction="J5" toJunction="J0" end="180" vehsPerHour="15.97650851070041" departLane="free"/>
  <flow id="JF168104" begin="120" fromJunction="J4" toJunction="J3" end="180" vehsPerHour="91.5284909599878" departLane="free"/>
  <flow id="JF168105" begin="120" fromJunction="J4" toJunction="J0" end="180" vehsPerHour="225.87209522984506" departLane="free"/>
  <flow id="JF168106" begin="120" fromJunction="J6" toJunction="J3" end="180" vehsPerHour="199.15579916581228" departLane="free"/>
  <flow id="JF168107" begin="120" fromJunction="J6" toJunction="J0" end="180" vehsPerHour="163.28938882338835" departLane="free"/>
  <flow id="JF168108" begin="120" fromJunction="J7" toJunction="J3" end="180" vehsPerHour="12.214435696529073" departLane="free"/>
  <flow id="JF168109" begin="120" fromJunction="J7" toJunction="J0" end="180" vehsPerHour="269.82689431867533" departLane="free"/>
  <flow id="JF168110" begin="180" fromJunction="J3" toJunction="J0" end="240" vehsPerHour="107.73803275113598" departLane="free"/>
  <flow id="JF168111" begin="180" fromJunction="J0" toJunction="J3" end="240" vehsPerHour="100.86358430556817" departLane="free"/>
  <flow id="JF168112" begin="180" fromJunction="J3" toJunction="J5" end="240" vehsPerHour="174.40049615941635" departLane="free"/>
  <flow id="JF168113" begin="180" fromJunction="J3" toJunction="J4" end="240" vehsPerHour="180.96771658886706" departLane="free"/>
  <flow id="JF168114" begin="180" fromJunction="J3" toJunction="J6" end="240" vehsPerHour="240.90416809681602" departLane="free"/>
  <flow id="JF168115" begin="180" fromJunction="J3" toJunction="J7" end="240" vehsPerHour="375.9394099337268" departLane="free"/>
  <flow id="JF168116" begin="180" fromJunction="J0" toJunction="J5" end="240" vehsPerHour="306.05639279042765" departLane="free"/>
  <flow id="JF168117" begin="180" fromJunction="J0" toJunction="J4" end="240" vehsPerHour="487.6588491617959" departLane="free"/>
  <flow id="JF168118" begin="180" fromJunction="J0" toJunction="J6" end="240" vehsPerHour="258.3276298847688" departLane="free"/>
  <flow id="JF168119" begin="180" fromJunction="J0" toJunction="J7" end="240" vehsPerHour="72.98225844398642" departLane="free"/>
  <flow id="JF168120" begin="180" fromJunction="J5" toJunction="J4" end="240" vehsPerHour="57.390269421857575" departLane="free"/>
  <flow id="JF168121" begin="180" fromJunction="J5" toJunction="J6" end="240" vehsPerHour="43.58866265688857" departLane="free"/>
  <flow id="JF168122" begin="180" fromJunction="J5" toJunction="J7" end="240" vehsPerHour="12.581654617780432" departLane="free"/>
  <flow id="JF168123" begin="180" fromJunction="J4" toJunction="J5" end="240" vehsPerHour="13.806064453907181" departLane="free"/>
  <flow id="JF168124" begin="180" fromJunction="J4" toJunction="J6" end="240" vehsPerHour="51.54619258981697" departLane="free"/>
  <flow id="JF168125" begin="180" fromJunction="J4" toJunction="J7" end="240" vehsPerHour="19.249213628937504" departLane="free"/>
  <flow id="JF168126" begin="180" fromJunction="J6" toJunction="J5" end="240" vehsPerHour="56.15691299267291" departLane="free"/>
  <flow id="JF168127" begin="180" fromJunction="J6" toJunction="J4" end="240" vehsPerHour="15.282051434813209" departLane="free"/>
  <flow id="JF168128" begin="180" fromJunction="J6" toJunction="J7" end="240" vehsPerHour="29.623618894180364" departLane="free"/>
  <flow id="JF168129" begin="180" fromJunction="J7" toJunction="J5" end="240" vehsPerHour="53.80247569926018" departLane="free"/>
  <flow id="JF168130" begin="180" fromJunction="J7" toJunction="J4" end="240" vehsPerHour="2.132091591131835" departLane="free"/>
  <flow id="JF168131" begin="180" fromJunction="J7" toJunction="J6" end="240" vehsPerHour="7.0100402574878045" departLane="free"/>
  <flow id="JF168132" begin="180" fromJunction="J5" toJunction="J3" end="240" vehsPerHour="107.5357787453846" departLane="free"/>
  <flow id="JF168133" begin="180" fromJunction="J5" toJunction="J0" end="240" vehsPerHour="128.6137460733115" departLane="free"/>
  <flow id="JF168134" begin="180" fromJunction="J4" toJunction="J3" end="240" vehsPerHour="92.7709399369054" departLane="free"/>
  <flow id="JF168135" begin="180" fromJunction="J4" toJunction="J0" end="240" vehsPerHour="49.86001192819108" departLane="free"/>
  <flow id="JF168136" begin="180" fromJunction="J6" toJunction="J3" end="240" vehsPerHour="264.0700210900751" departLane="free"/>
  <flow id="JF168137" begin="180" fromJunction="J6" toJunction="J0" end="240" vehsPerHour="23.735557657985733" departLane="free"/>
  <flow id="JF168138" begin="180" fromJunction="J7" toJunction="J3" end="240" vehsPerHour="65.11660664630067" departLane="free"/>
  <flow id="JF168139" begin="180" fromJunction="J7" toJunction="J0" end="240" vehsPerHour="6.926853964316171" departLane="free"/>
  <flow id="JF168140" begin="240" fromJunction="J3" toJunction="J0" end="300" vehsPerHour="52.90810838054509" departLane="free"/>
  <flow id="JF168141" begin="240" fromJunction="J0" toJunction="J3" end="300" vehsPerHour="22.957272932729637" departLane="free"/>
  <flow id="JF168142" begin="240" fromJunction="J3" toJunction="J5" end="300" vehsPerHour="105.07009250203961" departLane="free"/>
  <flow id="JF168143" begin="240" fromJunction="J3" toJunction="J4" end="300" vehsPerHour="181.48909155524035" departLane="free"/>
  <flow id="JF168144" begin="240" fromJunction="J3" toJunction="J6" end="300" vehsPerHour="321.75243060092384" departLane="free"/>
  <flow id="JF168145" begin="240" fromJunction="J3" toJunction="J7" end="300" vehsPerHour="336.16798943847635" departLane="free"/>
  <flow id="JF168146" begin="240" fromJunction="J0" toJunction="J5" end="300" vehsPerHour="311.5793243685516" departLane="free"/>
  <flow id="JF168147" begin="240" fromJunction="J0" toJunction="J4" end="300" vehsPerHour="443.5032017865866" departLane="free"/>
  <flow id="JF168148" begin="240" fromJunction="J0" toJunction="J6" end="300" vehsPerHour="223.42531455573845" departLane="free"/>
  <flow id="JF168149" begin="240" fromJunction="J0" toJunction="J7" end="300" vehsPerHour="457.4091279943534" departLane="free"/>
  <flow id="JF168150" begin="240" fromJunction="J5" toJunction="J4" end="300" vehsPerHour="42.623095941903934" departLane="free"/>
  <flow id="JF168151" begin="240" fromJunction="J5" toJunction="J6" end="300" vehsPerHour="30.28669614889361" departLane="free"/>
  <flow id="JF168152" begin="240" fromJunction="J5" toJunction="J7" end="300" vehsPerHour="48.827912583978964" departLane="free"/>
  <flow id="JF168153" begin="240" fromJunction="J4" toJunction="J5" end="300" vehsPerHour="50.62314561133815" departLane="free"/>
  <flow id="JF168154" begin="240" fromJunction="J4" toJunction="J6" end="300" vehsPerHour="67.36863725947539" departLane="free"/>
  <flow id="JF168155" begin="240" fromJunction="J4" toJunction="J7" end="300" vehsPerHour="25.62771672745951" departLane="free"/>
  <flow id="JF168156" begin="240" fromJunction="J6" toJunction="J5" end="300" vehsPerHour="62.974778175286644" departLane="free"/>
  <flow id="JF168157" begin="240" fromJunction="J6" toJunction="J4" end="300" vehsPerHour="51.22778655104172" departLane="free"/>
  <flow id="JF168158" begin="240" fromJunction="J6" toJunction="J7" end="300" vehsPerHour="31.76059399005576" departLane="free"/>
  <flow id="JF168159" begin="240" fromJunction="J7" toJunction="J5" end="300" vehsPerHour="45.67820347995465" departLane="free"/>
  <flow id="JF168160" begin="240" fromJunction="J7" toJunction="J4" end="300" vehsPerHour="19.08902464863929" departLane="free"/>
  <flow id="JF168161" begin="240" fromJunction="J7" toJunction="J6" end="300" vehsPerHour="14.474913520833521" departLane="free"/>
  <flow id="JF168162" begin="240" fromJunction="J5" toJunction="J3" end="300" vehsPerHour="194.39117039422862" departLane="free"/>
  <flow id="JF168163" begin="240" fromJunction="J5" toJunction="J0" end="300" vehsPerHour="246.18379009943897" departLane="free"/>
  <flow id="JF168164" begin="240" fromJunction="J4" toJunction="J3" end="300" vehsPerHour="165.9552202911408" departLane="free"/>
  <flow id="JF168165" begin="240" fromJunction="J4" toJunction="J0" end="300" vehsPerHour="82.61177590170988" departLane="free"/>
  <flow id="JF168166" begin="240" fromJunction="J6" toJunction="J3" end="300" vehsPerHour="212.91202762297638" departLane="free"/>
  <flow id="JF168167" begin="240" fromJunction="J6" toJunction="J0" end="300" vehsPerHour="38.09615064024391" departLane="free"/>
  <flow id="JF168168" begin="240" fromJunction="J7" toJunction="J3" end="300" vehsPerHour="271.33057435218217" departLane="free"/>
  <flow id="JF168169" begin="240" fromJunction="J7" toJunction="J0" end="300" vehsPerHour="153.6655250216091" departLane="free"/>
  <flow id="JF168170" begin="300" fromJunction="J3" toJunction="J0" end="360" vehsPerHour="11.262528284488717" departLane="free"/>
  <flow id="JF168171" begin="300" fromJunction="J0" toJunction="J3" end="360" vehsPerHour="135.1734716938473" departLane="free"/>
  <flow id="JF168172" begin="300" fromJunction="J3" toJunction="J5" end="360" vehsPerHour="293.1190200695421" departLane="free"/>
  <flow id="JF168173" begin="300" fromJunction="J3" toJunction="J4" end="360" vehsPerHour="401.96424482194595" departLane="free"/>
  <flow id="JF168174" begin="300" fromJunction="J3" toJunction="J6" end="360" vehsPerHour="441.38913101450567" departLane="free"/>
  <flow id="JF168175" begin="300" fromJunction="J3" toJunction="J7" end="360" vehsPerHour="291.3136505286261" departLane="free"/>
  <flow id="JF168176" begin="300" fromJunction="J0" toJunction="J5" end="360" vehsPerHour="141.94804889467707" departLane="free"/>
  <flow id="JF168177" begin="300" fromJunction="J0" toJunction="J4" end="360" vehsPerHour="116.75606558577984" departLane="free"/>
  <flow id="JF168178" begin="300" fromJunction="J0" toJunction="J6" end="360" vehsPerHour="452.17461940513584" departLane="free"/>
  <flow id="JF168179" begin="300" fromJunction="J0" toJunction="J7" end="360" vehsPerHour="368.71220014000255" departLane="free"/>
  <flow id="JF168180" begin="300" fromJunction="J5" toJunction="J4" end="360" vehsPerHour="55.94167573969168" departLane="free"/>
  <flow id="JF168181" begin="300" fromJunction="J5" toJunction="J6" end="360" vehsPerHour="52.027411389091654" departLane="free"/>
  <flow id="JF168182" begin="300" fromJunction="J5" toJunction="J7" end="360" vehsPerHour="6.256346119223642" departLane="free"/>
  <flow id="JF168183" begin="300" fromJunction="J4" toJunction="J5" end="360" vehsPerHour="31.319044009978178" departLane="free"/>
  <flow id="JF168184" begin="300" fromJunction="J4" toJunction="J6" end="360" vehsPerHour="5.8466841533434355" departLane="free"/>
  <flow id="JF168185" begin="300" fromJunction="J4" toJunction="J7" end="360" vehsPerHour="39.524996654696494" departLane="free"/>
  <flow id="JF168186" begin="300" fromJunction="J6" toJunction="J5" end="360" vehsPerHour="42.487409394356014" departLane="free"/>
  <flow id="JF168187" begin="300" fromJunction="J6" toJunction="J4" end="360" vehsPerHour="35.38348712884774" departLane="free"/>
  <flow id="JF168188" begin="300" fromJunction="J6" toJunction="J7" end="360" vehsPerHour="25.217071620710907" departLane="free"/>
  <flow id="JF168189" begin="300" fromJunction="J7" toJunction="J5" end="360" vehsPerHour="56.00788840042529" departLane="free"/>
  <flow id="JF168190" begin="300" fromJunction="J7" toJunction="J4" end="360" vehsPerHour="58.803341146491796" departLane="free"/>
  <flow id="JF168191" begin="300" fromJunction="J7" toJunction="J6" end="360" vehsPerHour="50.09697705904098" departLane="free"/>
  <flow id="JF168192" begin="300" fromJunction="J5" toJunction="J3" end="360" vehsPerHour="234.43186320304596" departLane="free"/>
  <flow id="JF168193" begin="300" fromJunction="J5" toJunction="J0" end="360" vehsPerHour="121.53655355130114" departLane="free"/>
  <flow id="JF168194" begin="300" fromJunction="J4" toJunction="J3" end="360" vehsPerHour="135.9149341496403" departLane="free"/>
  <flow id="JF168195" begin="300" fromJunction="J4" toJunction="J0" end="360" vehsPerHour="40.88290445694842" departLane="free"/>
  <flow id="JF168196" begin="300" fromJunction="J6" toJunction="J3" end="360" vehsPerHour="215.95000838289445" departLane="free"/>
  <flow id="JF168197" begin="300" fromJunction="J6" toJunction="J0" end="360" vehsPerHour="180.42369433914354" departLane="free"/>
  <flow id="JF168198" begin="300" fromJunction="J7" toJunction="J3" end="360" vehsPerHour="3.5965198136354597" departLane="free"/>
  <flow id="JF168199" begin="300" fromJunction="J7" toJunction="J0" end="360" vehsPerHour="138.7267487806795" departLane="free"/>
  <flow id="JF168200" begin="360" fromJunction="J3" toJunction="J0" end="420" vehsPerHour="64.5125843469465" departLane="free"/>
  <flow id="JF168201" begin="360" fromJunction="J0" toJunction="J3" end="420" vehsPerHour="61.33535803650161" departLane="free"/>
  <flow id="JF168202" begin="360" fromJunction="J3" toJunction="J5" end="420" vehsPerHour="36.999133663425965" departLane="free"/>
  <flow id="JF168203" begin="360" fromJunction="J3" toJunction="J4" end="420" vehsPerHour="257.80352121850603" departLane="free"/>
  <flow id="JF168204" begin="360" fromJunction="J3" toJunction="J6" end="420" vehsPerHour="134.06573843460478" departLane="free"/>
  <flow id="JF168205" begin="360" fromJunction="J3" toJunction="J7" end="420" vehsPerHour="207.10407612526615" departLane="free"/>
  <flow id="JF168206" begin="360" fromJunction="J0" toJunction="J5" end="420" vehsPerHour="25.508143482136592" departLane="free"/>
  <flow id="JF168207" begin="360" fromJunction="J0" toJunction="J4" end="420" vehsPerHour="18.47614106823549" departLane="free"/>
  <flow id="JF168208" begin="360" fromJunction="J0" toJunction="J6" end="420" vehsPerHour="222.6614191909647" departLane="free"/>
  <flow id="JF168209" begin="360" fromJunction="J0" toJunction="J7" end="420" vehsPerHour="521.8012472012076" departLane="free"/>
  <flow id="JF168210" begin="360" fromJunction="J5" toJunction="J4" end="420" vehsPerHour="49.67851375561018" departLane="free"/>
  <flow id="JF168211" begin="360" fromJunction="J5" toJunction="J6" end="420" vehsPerHour="39.647698897131455" departLane="free"/>
  <flow id="JF168212" begin="360" fromJunction="J5" toJunction="J7" end="420" vehsPerHour="60.461413364478695" departLane="free"/>
  <flow id="JF168213" begin="360" fromJunction="J4" toJunction="J5" end="420" vehsPerHour="33.467018412782174" departLane="free"/>
  <flow id="JF168214" begin="360" fromJunction="J4" toJunction="J6" end="420" vehsPerHour="0.6282508235452339" departLane="free"/>
  <flow id="JF168215" begin="360" fromJunction="J4" toJunction="J7" end="420" vehsPerHour="52.7658657312727" departLane="free"/>
  <flow id="JF168216" begin="360" fromJunction="J6" toJunction="J5" end="420" vehsPerHour="61.868239091455955" departLane="free"/>
  <flow id="JF168217" begin="360" fromJunction="J6" toJunction="J4" end="420" vehsPerHour="57.49588564342225" departLane="free"/>
  <flow id="JF168218" begin="360" fromJunction="J6" toJunction="J7" end="420" vehsPerHour="53.24167146511168" departLane="free"/>
  <flow id="JF168219" begin="360" fromJunction="J7" toJunction="J5" end="420" vehsPerHour="18.311255552293005" departLane="free"/>
  <flow id="JF168220" begin="360" fromJunction="J7" toJunction="J4" end="420" vehsPerHour="17.118825190769417" departLane="free"/>
  <flow id="JF168221" begin="360" fromJunction="J7" toJunction="J6" end="420" vehsPerHour="44.057568800812916" departLane="free"/>
  <flow id="JF168222" begin="360" fromJunction="J5" toJunction="J3" end="420" vehsPerHour="86.67903963160391" departLane="free"/>
  <flow id="JF168223" begin="360" fromJunction="J5" toJunction="J0" end="420" vehsPerHour="204.92820660812606" departLane="free"/>
  <flow id="JF168224" begin="360" fromJunction="J4" toJunction="J3" end="420" vehsPerHour="9.787100238449057" departLane="free"/>
  <flow id="JF168225" begin="360" fromJunction="J4" toJunction="J0" end="420" vehsPerHour="189.45928069158393" departLane="free"/>
  <flow id="JF168226" begin="360" fromJunction="J6" toJunction="J3" end="420" vehsPerHour="94.80963402216591" departLane="free"/>
  <flow id="JF168227" begin="360" fromJunction="J6" toJunction="J0" end="420" vehsPerHour="37.25246471648066" departLane="free"/>
  <flow id="JF168228" begin="360" fromJunction="J7" toJunction="J3" end="420" vehsPerHour="70.16583098102635" departLane="free"/>
  <flow id="JF168229" begin="360" fromJunction="J7" toJunction="J0" end="420" vehsPerHour="191.44901979155543" departLane="free"/>
  <flow id="JF168230" begin="420" fromJunction="J3" toJunction="J0" end="480" vehsPerHour="43.83074872719126" departLane="free"/>
  <flow id="JF168231" begin="420" fromJunction="J0" toJunction="J3" end="480" vehsPerHour="13.918502178097679" departLane="free"/>
  <flow id="JF168232" begin="420" fromJunction="J3" toJunction="J5" end="480" vehsPerHour="426.4915876074899" departLane="free"/>
  <flow id="JF168233" begin="420" fromJunction="J3" toJunction="J4" end="480" vehsPerHour="325.21521759264766" departLane="free"/>
  <flow id="JF168234" begin="420" fromJunction="J3" toJunction="J6" end="480" vehsPerHour="263.99921384856344" departLane="free"/>
  <flow id="JF168235" begin="420" fromJunction="J3" toJunction="J7" end="480" vehsPerHour="49.937113795538835" departLane="free"/>
  <flow id="JF168236" begin="420" fromJunction="J0" toJunction="J5" end="480" vehsPerHour="258.6415199480036" departLane="free"/>
  <flow id="JF168237" begin="420" fromJunction="J0" toJunction="J4" end="480" vehsPerHour="339.7230613234936" departLane="free"/>
  <flow id="JF168238" begin="420" fromJunction="J0" toJunction="J6" end="480" vehsPerHour="155.07287143259052" departLane="free"/>
  <flow id="JF168239" begin="420" fromJunction="J0" toJunction="J7" end="480" vehsPerHour="243.0508532009147" departLane="free"/>
  <flow id="JF168240" begin="420" fromJunction="J5" toJunction="J4" end="480" vehsPerHour="66.13716337598619" departLane="free"/>
  <flow id="JF168241" begin="420" fromJunction="J5" toJunction="J6" end="480" vehsPerHour="19.678284062816054" departLane="free"/>
  <flow id="JF168242" begin="420" fromJunction="J5" toJunction="J7" end="480" vehsPerHour="27.80841167197528" departLane="free"/>
  <flow id="JF168243" begin="420" fromJunction="J4" toJunction="J5" end="480" vehsPerHour="31.03080437843939" departLane="free"/>
  <flow id="JF168244" begin="420" fromJunction="J4" toJunction="J6" end="480" vehsPerHour="60.85262014215376" departLane="free"/>
  <flow id="JF168245" begin="420" fromJunction="J4" toJunction="J7" end="480" vehsPerHour="29.816982357621665" departLane="free"/>
  <flow id="JF168246" begin="420" fromJunction="J6" toJunction="J5" end="480" vehsPerHour="25.389058654667505" departLane="free"/>
  <flow id="JF168247" begin="420" fromJunction="J6" toJunction="J4" end="480" vehsPerHour="18.570269222508255" departLane="free"/>
  <flow id="JF168248" begin="420" fromJunction="J6" toJunction="J7" end="480" vehsPerHour="57.5284202530672" departLane="free"/>
  <flow id="JF168249" begin="420" fromJunction="J7" toJunction="J5" end="480" vehsPerHour="19.062803937856902" departLane="free"/>
  <flow id="JF168250" begin="420" fromJunction="J7" toJunction="J4" end="480" vehsPerHour="50.232421711397144" departLane="free"/>
  <flow id="JF168251" begin="420" fromJunction="J7" toJunction="J6" end="480" vehsPerHour="46.60411562499419" departLane="free"/>
  <flow id="JF168252" begin="420" fromJunction="J5" toJunction="J3" end="480" vehsPerHour="174.09894403893443" departLane="free"/>
  <flow id="JF168253" begin="420" fromJunction="J5" toJunction="J0" end="480" vehsPerHour="231.5563480374599" departLane="free"/>
  <flow id="JF168254" begin="420" fromJunction="J4" toJunction="J3" end="480" vehsPerHour="25.093322777614286" departLane="free"/>
  <flow id="JF168255" begin="420" fromJunction="J4" toJunction="J0" end="480" vehsPerHour="119.07740004223021" departLane="free"/>
  <flow id="JF168256" begin="420" fromJunction="J6" toJunction="J3" end="480" vehsPerHour="108.70002617111614" departLane="free"/>
  <flow id="JF168257" begin="420" fromJunction="J6" toJunction="J0" end="480" vehsPerHour="113.81766216455608" departLane="free"/>
  <flow id="JF168258" begin="420" fromJunction="J7" toJunction="J3" end="480" vehsPerHour="264.01997538750436" departLane="free"/>
  <flow id="JF168259" begin="420" fromJunction="J7" toJunction="J0" end="480" vehsPerHour="245.2147493648353" departLane="free"/>
  <flow id="JF168260" begin="480" fromJunction="J3" toJunction="J0" end="540" vehsPerHour="39.39447558521607" departLane="free"/>
  <flow id="JF168261" begin="480" fromJunction="J0" toJunction="J3" end="540" vehsPerHour="26.37452985343255" departLane="free"/>
  <flow id="JF168262" begin="480" fromJunction="J3" toJunction="J5" end="540" vehsPerHour="328.29793098363666" departLane="free"/>
  <flow id="JF168263" begin="480" fromJunction="J3" toJunction="J4" end="540" vehsPerHour="40.020693505841095" departLane="free"/>
  <flow id="JF168264" begin="480" fromJunction="J3" toJunction="J6" end="540" vehsPerHour="293.4803277365148" departLane="free"/>
  <flow id="JF168265" begin="480" fromJunction="J3" toJunction="J7" end="540" vehsPerHour="53.69266639312515" departLane="free"/>
  <flow id="JF168266" begin="480" fromJunction="J0" toJunction="J5" end="540" vehsPerHour="417.9561486977899" departLane="free"/>
  <flow id="JF168267" begin="480" fromJunction="J0" toJunction="J4" end="540" vehsPerHour="399.98094877900456" departLane="free"/>
  <flow id="JF168268" begin="480" fromJunction="J0" toJunction="J6" end="540" vehsPerHour="29.273464042397137" departLane="free"/>