<?xml version="1.0" encoding="UTF-8"?>
<routes xmlns:xsi="http://www.w3.org/2001/XMLSchema-instance" xsi:noNamespaceSchemaLocation="http://sumo.dlr.de/xsd/routes_file.xsd">
  <flow id="JF171920" begin="0" fromJunction="J3" toJunction="J0" end="60" vehsPerHour="7.0740136629487855" departLane="free"/>
  <flow id="JF171921" begin="0" fromJunction="J0" toJunction="J3" end="60" vehsPerHour="135.1370810379621" departLane="free"/>
  <flow id="JF171922" begin="0" fromJunction="J3" toJunction="J5" end="60" vehsPerHour="523.7825053030682" departLane="free"/>
  <flow id="JF171923" begin="0" fromJunction="J3" toJunction="J4" end="60" vehsPerHour="398.3948410617627" departLane="free"/>
  <flow id="JF171924" begin="0" fromJunction="J3" toJunction="J6" end="60" vehsPerHour="47.24104862029474" departLane="free"/>
  <flow id="JF171925" begin="0" fromJunction="J3" toJunction="J7" end="60" vehsPerHour="307.6164702837231" departLane="free"/>
  <flow id="JF171926" begin="0" fromJunction="J0" toJunction="J5" end="60" vehsPerHour="63.43561895016343" departLane="free"/>
  <flow id="JF171927" begin="0" fromJunction="J0" toJunction="J4" end="60" vehsPerHour="336.8758182795435" departLane="free"/>
  <flow id="JF171928" begin="0" fromJunction="J0" toJunction="J6" end="60" vehsPerHour="17.20836134280855" departLane="free"/>
  <flow id="JF171929" begin="0" fromJunction="J0" toJunction="J7" end="60" vehsPerHour="213.09724837725025" departLane="free"/>
  <flow id="JF171930" begin="0" fromJunction="J5" toJunction="J4" end="60" vehsPerHour="10.82043745171851" departLane="free"/>
  <flow id="JF171931" begin="0" fromJunction="J5" toJunction="J6" end="60" vehsPerHour="9.082443062428363" departLane="free"/>
  <flow id="JF171932" begin="0" fromJunction="J5" toJunction="J7" end="60" vehsPerHour="17.994764615414798" departLane="free"/>
  <flow id="JF171933" begin="0" fromJunction="J4" toJunction="J5" end="60" vehsPerHour="15.015199606001923" departLane="free"/>
  <flow id="JF171934" begin="0" fromJunction="J4" toJunction="J6" end="60" vehsPerHour="25.967925700243388" departLane="free"/>
  <flow id="JF171935" begin="0" fromJunction="J4" toJunction="J7" end="60" vehsPerHour="28.69521326350523" departLane="free"/>
  <flow id="JF171936" begin="0" fromJunction="J6" toJunction="J5" end="60" vehsPerHour="15.289746111971258" departLane="free"/>
  <flow id="JF171937" begin="0" fromJunction="J6" toJunction="J4" end="60" vehsPerHour="6.86325799807794" departLane="free"/>
  <flow id="JF171938" begin="0" fromJunction="J6" toJunction="J7" end="60" vehsPerHour="35.600504316309596" departLane="free"/>
  <flow id="JF171939" begin="0" fromJunction="J7" toJunction="J5" end="60" vehsPerHour="47.056153571227206" departLane="free"/>
  <flow id="JF171940" begin="0" fromJunction="J7" toJunction="J4" end="60" vehsPerHour="41.57615678027199" departLane="free"/>
  <flow id="JF171941" begin="0" fromJunction="J7" toJunction="J6" end="60" vehsPerHour="37.283618164731855" departLane="free"/>
  <flow id="JF171942" begin="0" fromJunction="J5" toJunction="J3" end="60" vehsPerHour="245.77209518115612" departLane="free"/>
  <flow id="JF171943" begin="0" fromJunction="J5" toJunction="J0" end="60" vehsPerHour="198.5541009020183" departLane="free"/>
  <flow id="JF171944" begin="0" fromJunction="J4" toJunction="J3" end="60" vehsPerHour="164.53121047715908" departLane="free"/>
  <flow id="JF171945" begin="0" fromJunction="J4" toJunction="J0" end="60" vehsPerHour="107.6253596739221" departLane="free"/>
  <flow id="JF171946" begin="0" fromJunction="J6" toJunction="J3" end="60" vehsPerHour="137.1858258341883" departLane="free"/>
  <flow id="JF171947" begin="0" fromJunction="J6" toJunction="J0" end="60" vehsPerHour="132.3781227897673" departLane="free"/>
  <flow id="JF171948" begin="0" fromJunction="J7" toJunction="J3" end="60" vehsPerHour="169.29613259886338" departLane="free"/>
  <flow id="JF171949" begin="0" fromJunction="J7" toJunction="J0" end="60" vehsPerHour="243.37384249433214" departLane="free"/>
  <flow id="JF171950" begin="60" fromJunction="J3" toJunction="J0" end="120" vehsPerHour="121.60095298677973" departLane="free"/>
  <flow id="JF171951" begin="60" fromJunction="J0" toJunction="J3" end="120" vehsPerHour="131.4555763074083" departLane="free"/>
  <flow id="JF171952" begin="60" fromJunction="J3" toJunction="J5" end="120" vehsPerHour="282.2460606989281" departLane="free"/>
  <flow id="JF171953" begin="60" fromJunction="J3" toJunction="J4" end="120" vehsPerHour="483.1734869828294" departLane="free"/>
  <flow id="JF171954" begin="60" fromJunction="J3" toJunction="J6" end="120" vehsPerHour="384.3437709553671" departLane="free"/>
  <flow id="JF171955" begin="60" fromJunction="J3" toJunction="J7" end="120" vehsPerHour="43.93079466454618" departLane="free"/>
  <flow id="JF171956" begin="60" fromJunction="J0" toJunction="J5" end="120" vehsPerHour="115.41156432895697" departLane="free"/>
  <flow id="JF171957" begin="60" fromJunction="J0" toJunction="J4" end="120" vehsPerHour="313.3479173810034" departLane="free"/>
  <flow id="JF171958" begin="60" fromJunction="J0" toJunction="J6" end="120" vehsPerHour="424.21520913631906" departLane="free"/>
  <flow id="JF171959" begin="60" fromJunction="J0" toJunction="J7" end="120" vehsPerHour="25.208005089049166" departLane="free"/>
  <flow id="JF171960" begin="60" fromJunction="J5" toJunction="J4" end="120" vehsPerHour="36.38216699906709" departLane="free"/>
  <flow id="JF171961" begin="60" fromJunction="J5" toJunction="J6" end="120" vehsPerHour="2.2424163520137057" departLane="free"/>
  <flow id="JF171962" begin="60" fromJunction="J5" toJunction="J7" end="120" vehsPerHour="66.54952308316552" departLane="free"/>
  <flow id="JF171963" begin="60" fromJunction="J4" toJunction="J5" end="120" vehsPerHour="36.917428939597265" departLane="free"/>
  <flow id="JF171964" begin="60" fromJunction="J4" toJunction="J6" end="120" vehsPerHour="21.15397265544414" departLane="free"/>
  <flow id="JF171965" begin="60" fromJunction="J4" toJunction="J7" end="120" vehsPerHour="65.17520326778686" departLane="free"/>
  <flow id="JF171966" begin="60" fromJunction="J6" toJunction="J5" end="120" vehsPerHour="19.75518578754863" departLane="free"/>
  <flow id="JF171967" begin="60" fromJunction="J6" toJunction="J4" end="120" vehsPerHour="19.33131330865665" departLane="free"/>
  <flow id="JF171968" begin="60" fromJunction="J6" toJunction="J7" end="120" vehsPerHour="42.184228326984986" departLane="free"/>
  <flow id="JF171969" begin="60" fromJunction="J7" toJunction="J5" end="120" vehsPerHour="45.33179297805805" departLane="free"/>
  <flow id="JF171970" begin="60" fromJunction="J7" toJunction="J4" end="120" vehsPerHour="16.402803006897948" departLane="free"/>
  <flow id="JF171971" begin="60" fromJunction="J7" toJunction="J6" end="120" vehsPerHour="54.346434794714575" departLane="free"/>
  <flow id="JF171972" begin="60" fromJunction="J5" toJunction="J3" end="120" vehsPerHour="236.8523936103995" departLane="free"/>
  <flow id="JF171973" begin="60" fromJunction="J5" toJunction="J0" end="120" vehsPerHour="252.34433463805362" departLane="free"/>
  <flow id="JF171974" begin="60" fromJunction="J4" toJunction="J3" end="120" vehsPerHour="0.7463756385202077" departLane="free"/>
  <flow id="JF171975" begin="60" fromJunction="J4" toJunction="J0" end="120" vehsPerHour="4.977988026208361" departLane="free"/>
  <flow id="JF171976" begin="60" fromJunction="J6" toJunction="J3" end="120" vehsPerHour="109.50128999189269" departLane="free"/>
  <flow id="JF171977" begin="60" fromJunction="J6" toJunction="J0" end="120" vehsPerHour="117.41558751111276" departLane="free"/>
  <flow id="JF171978" begin="60" fromJunction="J7" toJunction="J3" end="120" vehsPerHour="215.70640916471922" departLane="free"/>
  <flow id="JF171979" begin="60" fromJunction="J7" toJunction="J0" end="120" vehsPerHour="166.18491052635534" departLane="free"/>
  <flow id="JF171980" begin="120" fromJunction="J3" toJunction="J0" end="180" vehsPerHour="50.20088766389234" departLane="free"/>
  <flow id="JF171981" begin="120" fromJunction="J0" toJunction="J3" end="180" vehsPerHour="68.06911979726877" departLane="free"/>
  <flow id="JF171982" begin="120" fromJunction="J3" toJunction="J5" end="180" vehsPerHour="426.36269642166894" departLane="free"/>
  <flow id="JF171983" begin="120" fromJunction="J3" toJunction="J4" end="180" vehsPerHour="411.5824428996196" departLane="free"/>
  <flow id="JF171984" begin="120" fromJunction="J3" toJunction="J6" end="180" vehsPerHour="167.5725400720459" departLane="free"/>
  <flow id="JF171985" begin="120" fromJunction="J3" toJunction="J7" end="180" vehsPerHour="231.14878337866548" departLane="free"/>
  <flow id="JF171986" begin="120" fromJunction="J0" toJunction="J5" end="180" vehsPerHour="192.41829704656456" departLane="free"/>
  <flow id="JF171987" begin="120" fromJunction="J0" toJunction="J4" end="180" vehsPerHour="35.14372034038926" departLane="free"/>
  <flow id="JF171988" begin="120" fromJunction="J0" toJunction="J6" end="180" vehsPerHour="89.30113530838845" departLane="free"/>
  <flow id="JF171989" begin="120" fromJunction="J0" toJunction="J7" end="180" vehsPerHour="431.793155031375" departLane="free"/>
  <flow id="JF171990" begin="120" fromJunction="J5" toJunction="J4" end="180" vehsPerHour="66.73475625887076" departLane="free"/>
  <flow id="JF171991" begin="120" fromJunction="J5" toJunction="J6" end="180" vehsPerHour="31.028213493875114" departLane="free"/>
  <flow id="JF171992" begin="120" fromJunction="J5" toJunction="J7" end="180" vehsPerHour="12.962719828839447" departLane="free"/>
  <flow id="JF171993" begin="120" fromJunction="J4" toJunction="J5" end="180" vehsPerHour="54.74301635307835" departLane="free"/>
  <flow id="JF171994" begin="120" fromJunction="J4" toJunction="J6" end="180" vehsPerHour="5.51280683208469" departLane="free"/>
  <flow id="JF171995" begin="120" fromJunction="J4" toJunction="J7" end="180" vehsPerHour="63.228013070807634" departLane="free"/>
  <flow id="JF171996" begin="120" fromJunction="J6" toJunction="J5" end="180" vehsPerHour="9.106273374462116" departLane="free"/>
  <flow id="JF171997" begin="120" fromJunction="J6" toJunction="J4" end="180" vehsPerHour="51.1498530188514" departLane="free"/>
  <flow id="JF171998" begin="120" fromJunction="J6" toJunction="J7" end="180" vehsPerHour="10.723711563345772" departLane="free"/>
  <flow id="JF171999" begin="120" fromJunction="J7" toJunction="J5" end="180" vehsPerHour="3.1203361717105462" departLane="free"/>
  <flow id="JF172000" begin="120" fromJunction="J7" toJunction="J4" end="180" vehsPerHour="33.99559484605785" departLane="free"/>
  <flow id="JF172001" begin="120" fromJunction="J7" toJunction="J6" end="180" vehsPerHour="68.19919455232909" departLane="free"/>
  <flow id="JF172002" begin="120" fromJunction="J5" toJunction="J3" end="180" vehsPerHour="42.83260533659304" departLane="free"/>
  <flow id="JF172003" begin="120" fromJunction="J5" toJunction="J0" end="180" vehsPerHour="250.53070712551656" departLane="free"/>
  <flow id="JF172004" begin="120" fromJunction="J4" toJunction="J3" end="180" vehsPerHour="93.48169344601182" departLane="free"/>
  <flow id="JF172005" begin="120" fromJunction="J4" toJunction="J0" end="180" vehsPerHour="89.00662227235681" departLane="free"/>
  <flow id="JF172006" begin="120" fromJunction="J6" toJunction="J3" end="180" vehsPerHour="118.82777788549848" departLane="free"/>
  <flow id="JF172007" begin="120" fromJunction="J6" toJunction="J0" end="180" vehsPerHour="105.79915078029622" departLane="free"/>
  <flow id="JF172008" begin="120" fromJunction="J7" toJunction="J3" end="180" vehsPerHour="80.26945259341538" departLane="free"/>
  <flow id="JF172009" begin="120" fromJunction="J7" toJunction="J0" end="180" vehsPerHour="127.87331126481095" departLane="free"/>
  <flow id="JF172010" begin="180" fromJunction="J3" toJunction="J0" end="240" vehsPerHour="30.496506743222003" departLane="free"/>
  <flow id="JF172011" begin="180" fromJunction="J0" toJunction="J3" end="240" vehsPerHour="59.36676998609245" departLane="free"/>
  <flow id="JF172012" begin="180" fromJunction="J3" toJunction="J5" end="240" vehsPerHour="512.5026804241127" departLane="free"/>
  <flow id="JF172013" begin="180" fromJunction="J3" toJunction="J4" end="240" vehsPerHour="434.46623112072245" departLane="free"/>
  <flow id="JF172014" begin="180" fromJunction="J3" toJunction="J6" end="240" vehsPerHour="266.1041841166483" departLane="free"/>
  <flow id="JF172015" begin="180" fromJunction="J3" toJunction="J7" end="240" vehsPerHour="176.13343511421817" departLane="free"/>
  <flow id="JF172016" begin="180" fromJunction="J0" toJunction="J5" end="240" vehsPerHour="232.26119845661694" departLane="free"/>
  <flow id="JF172017" begin="180" fromJunction="J0" toJunction="J4" end="240" vehsPerHour="102.81159397651909" departLane="free"/>
  <flow id="JF172018" begin="180" fromJunction="J0" toJunction="J6" end="240" vehsPerHour="432.5408635826501" departLane="free"/>
  <flow id="JF172019" begin="180" fromJunction="J0" toJunction="J7" end="240" vehsPerHour="92.89705953492813" departLane="free"/>
  <flow id="JF172020" begin="180" fromJunction="J5" toJunction="J4" end="240" vehsPerHour="4.636557753812607" departLane="free"/>
  <flow id="JF172021" begin="180" fromJunction="J5" toJunction="J6" end="240" vehsPerHour="41.46389877401312" departLane="free"/>
  <flow id="JF172022" begin="180" fromJunction="J5" toJunction="J7" end="240" vehsPerHour="55.290092225729786" departLane="free"/>
  <flow id="JF172023" begin="180" fromJunction="J4" toJunction="J5" end="240" vehsPerHour="26.98555469078269" departLane="free"/>
  <flow id="JF172024" begin="180" fromJunction="J4" toJunction="J6" end="240" vehsPerHour="17.577237584865003" departLane="free"/>
  <flow id="JF172025" begin="180" fromJunction="J4" toJunction="J7" end="240" vehsPerHour="8.517128972479076" departLane="free"/>
  <flow id="JF172026" begin="180" fromJunction="J6" toJunction="J5" end="240" vehsPerHour="6.4536559909381035" departLane="free"/>
  <flow id="JF172027" begin="180" fromJunction="J6" toJunction="J4" end="240" vehsPerHour="3.3055635737160194" departLane="free"/>
  <flow id="JF172028" begin="180" fromJunction="J6" toJunction="J7" end="240" vehsPerHour="15.709189583272101" departLane="free"/>
  <flow id="JF172029" begin="180" fromJunction="J7" toJunction="J5" end="240" vehsPerHour="49.0224732721931" departLane="free"/>
  <flow id="JF172030" begin="180" fromJunction="J7" toJunction="J4" end="240" vehsPerHour="30.7333779107138" departLane="free"/>
  <flow id="JF172031" begin="180" fromJunction="J7" toJunction="J6" end="240" vehsPerHour="19.872260853547687" departLane="free"/>
  <flow id="JF172032" begin="180" fromJunction="J5" toJunction="J3" end="240" vehsPerHour="156.8337727098516" departLane="free"/>
  <flow id="JF172033" begin="180" fromJunction="J5" toJunction="J0" end="240" vehsPerHour="270.27898325384837" departLane="free"/>
  <flow id="JF172034" begin="180" fromJunction="J4" toJunction="J3" end="240" vehsPerHour="261.9056074666611" departLane="free"/>
  <flow id="JF172035" begin="180" fromJunction="J4" toJunction="J0" end="240" vehsPerHour="44.39022431471937" departLane="free"/>
  <flow id="JF172036" begin="180" fromJunction="J6" toJunction="J3" end="240" vehsPerHour="190.31445488859825" departLane="free"/>
  <flow id="JF172037" begin="180" fromJunction="J6" toJunction="J0" end="240" vehsPerHour="244.57696042144454" departLane="free"/>
  <flow id="JF172038" begin="180" fromJunction="J7" toJunction="J3" end="240" vehsPerHour="31.98786383601032" departLane="free"/>
  <flow id="JF172039" begin="180" fromJunction="J7" toJunction="J0" end="240" vehsPerHour="162.09212509396716" departLane="free"/>
  <flow id="JF172040" begin="240" fromJunction="J3" toJunction="J0" end="300" vehsPerHour="107.12443345221318" departLane="free"/>
  <flow id="JF172041" begin="240" fromJunction="J0" toJunction="J3" end="300" vehsPerHour="47.11181629519291" departLane="free"/>
  <flow id="JF172042" begin="240" fromJunction="J3" toJunction="J5" end="300" vehsPerHour="268.7122468970983" departLane="free"/>
  <flow id="JF172043" begin="240" fromJunction="J3" toJunction="J4" end="300" vehsPerHour="334.5812182893602" departLane="free"/>
  <flow id="JF172044" begin="240" fromJunction="J3" toJunction="J6" end="300" vehsPerHour="134.67128187128705" departLane="free"/>
  <flow id="JF172045" begin="240" fromJunction="J3" toJunction="J7" end="300" vehsPerHour="445.6211396871702" departLane="free"/>
  <flow id="JF172046" begin="240" fromJunction="J0" toJunction="J5" end="300" vehsPerHour="218.76673152163332" departLane="free"/>
  <flow id="JF172047" begin="240" fromJunction="J0" toJunction="J4" end="300" vehsPerHour="366.0437743093277" departLane="free"/>
  <flow id="JF172048" begin="240" fromJunction="J0" toJunction="J6" end="300" vehsPerHour="162.6827766130507" departLane="free"/>
  <flow id="JF172049" begin="240" fromJunction="J0" toJunction="J7" end="300" vehsPerHour="71.60549394286154" departLane="free"/>
  <flow id="JF172050" begin="240" fromJunction="J5" toJunction="J4" end="300" vehsPerHour="10.598788479278637" departLane="free"/>
  <flow id="JF172051" begin="240" fromJunction="J5" toJunction="J6" end="300" vehsPerHour="7.652463594175815" departLane="free"/>
  <flow id="JF172052" begin="240" fromJunction="J5" toJunction="J7" end="300" vehsPerHour="49.381185935667915" departLane="free"/>
  <flow id="JF172053" begin="240" fromJunction="J4" toJunction="J5" end="300" vehsPerHour="12.33134307512149" departLane="free"/>
  <flow id="JF172054" begin="240" fromJunction="J4" toJunction="J6" end="300" vehsPerHour="16.71850046995964" departLane="free"/>
  <flow id="JF172055" begin="240" fromJunction="J4" toJunction="J7" end="300" vehsPerHour="39.06646097325759" departLane="free"/>
  <flow id="JF172056" begin="240" fromJunction="J6" toJunction="J5" end="300" vehsPerHour="22.282956971777832" departLane="free"/>
  <flow id="JF172057" begin="240" fromJunction="J6" toJunction="J4" end="300" vehsPerHour="22.0127672703033" departLane="free"/>
  <flow id="JF172058" begin="240" fromJunction="J6" toJunction="J7" end="300" vehsPerHour="9.973640225809618" departLane="free"/>
  <flow id="JF172059" begin="240" fromJunction="J7" toJunction="J5" end="300" vehsPerHour="19.723652802907072" departLane="free"/>
  <flow id="JF172060" begin="240" fromJunction="J7" toJunction="J4" end="300" vehsPerHour="12.589699162595752" departLane="free"/>
  <flow id="JF172061" begin="240" fromJunction="J7" toJunction="J6" end="300" vehsPerHour="43.6117252304546" departLane="free"/>
  <flow id="JF172062" begin="240" fromJunction="J5" toJunction="J3" end="300" vehsPerHour="72.3869356544838" departLane="free"/>
  <flow id="JF172063" begin="240" fromJunction="J5" toJunction="J0" end="300" vehsPerHour="272.5991544754435" departLane="free"/>
  <flow id="JF172064" begin="240" fromJunction="J4" toJunction="J3" end="300" vehsPerHour="170.3506181982862" departLane="free"/>
  <flow id="JF172065" begin="240" fromJunction="J4" toJunction="J0" end="300" vehsPerHour="241.49580093312278" departLane="free"/>
  <flow id="JF172066" begin="240" fromJunction="J6" toJunction="J3" end="300" vehsPerHour="174.56680399137574" departLane="free"/>
  <flow id="JF172067" begin="240" fromJunction="J6" toJunction="J0" end="300" vehsPerHour="158.93572598448122" departLane="free"/>
  <flow id="JF172068" begin="240" fromJunction="J7" toJunction="J3" end="300" vehsPerHour="183.08337903506188" departLane="free"/>
  <flow id="JF172069" begin="240" fromJunction="J7" toJunction="J0" end="300" vehsPerHour="18.835696874619078" departLane="free"/>
  <flow id="JF172070" begin="300" fromJunction="J3" toJunction="J0" end="360" vehsPerHour="48.049916488342866" departLane="free"/>
  <flow id="JF172071" begin="300" fromJunction="J0" toJunction="J3" end="360" vehsPerHour="64.96693046461716" departLane="free"/>
  <flow id="JF172072" begin="300" fromJunction="J3" toJunction="J5" end="360" vehsPerHour="138.59240203154522" departLane="free"/>
  <flow id="JF172073" begin="300" fromJunction="J3" toJunction="J4" end="360" vehsPerHour="341.79085150575327" departLane="free"/>
  <flow id="JF172074" begin="300" fromJunction="J3" toJunction="J6" end="360" vehsPerHour="28.84738141922351" departLane="free"/>
  <flow id="JF172075" begin="300" fromJunction="J3" toJunction="J7" end="360" vehsPerHour="133.65921602284786" departLane="free"/>
  <flow id="JF172076" begin="300" fromJunction="J0" toJunction="J5" end="360" vehsPerHour="113.7658964876581" departLane="free"/>
  <flow id="JF172077" begin="300" fromJunction="J0" toJunction="J4" end="360" vehsPerHour="334.0616118577118" departLane="free"/>
  <flow id="JF172078" begin="300" fromJunction="J0" toJunction="J6" end="360" vehsPerHour="84.3944081147485" departLane="free"/>
  <flow id="JF172079" begin="300" fromJunction="J0" toJunction="J7" end="360" vehsPerHour="179.76780056732065" departLane="free"/>
  <flow id="JF172080" begin="360" fromJunction="J3" toJunction="J0" end="420" vehsPerHour="116.61772556240807" departLane="free"/>
  <flow id="JF172081" begin="360" fromJunction="J0" toJunction="J3" end="420" vehsPerHour="135.5837557864562" departLane="free"/>
  <flow id="JF172082" begin="360" fromJunction="J3" toJunction="J5" end="420" vehsPerHour="34.51378521059865" departLane="free"/>
  <flow id="JF172083" begin="360" fromJunction="J3" toJunction="J4" end="420" vehsPerHour="320.2131136785336" departLane="free"/>
  <flow id="JF172084" begin="360" fromJunction="J3" toJunction="J6" end="420" vehsPerHour="102.73706560248266" departLane="free"/>
  <flow id="JF172085" begin="360" fromJunction="J3" toJunction="J7" end="420" vehsPerHour="72.98010453397008" departLane="free"/>
  <flow id="JF172086" begin="360" fromJunction="J0" toJunction="J5" end="420" vehsPerHour="287.15770237126895" departLane="free"/>
  <flow id="JF172087" begin="360" fromJunction="J0" toJunction="J4" end="420" vehsPerHour="322.9262575075296" departLane="free"/>
  <flow id="JF172088" begin="360" fromJunction="J0" toJunction="J6" end="420" vehsPerHour="548.7854071613169" departLane="free"/>
  <flow id="JF172089" begin="360" fromJunction="J0" toJunction="J7" end="420" vehsPerHour="168.04678340806223" departLane="free"/>
  <flow id="JF172090" begin="360" fromJunction="J5" toJunction="J4" end="420" vehsPerHour="22.383278147924216" departLane="free"/>
  <flow id="JF172091" begin="360" fromJunction="J5" toJunction="J6" end="420" vehsPerHour="2.3808662451582765" departLane="free"/>
  <flow id="JF172092" begin="360" fromJunction="J5" toJunction="J7" end="420" vehsPerHour="16.62042041209339" departLane="free"/>
  <flow id="JF172093" begin="360" fromJunction="J4" toJunction="J5" end="420" vehsPerHour="65.17150760490854" departLane="free"/>
  <flow id="JF172094" begin="360" fromJunction="J4" toJunction="J6" end="420" vehsPerHour="38.95492130436387" departLane="free"/>
  <flow id="JF172095" begin="360" fromJunction="J4" toJunction="J7" end="420" vehsPerHour="5.119596726732059" departLane="free"/>
  <flow id="JF172096" begin="360" fromJunction="J6" toJunction="J5" end="420" vehsPerHour="55.66117499923786" departLane="free"/>
  <flow id="JF172097" begin="360" fromJunction="J6" toJunction="J4" end="420" vehsPerHour="7.076637277040645" departLane="free"/>
  <flow id="JF172098" begin="360" fromJunction="J6" toJunction="J7" end="420" vehsPerHour="49.91601150489043" departLane="free"/>
  <flow id="JF172099" begin="360" fromJunction="J7" toJunction="J5" end="420" vehsPerHour="36.489028524569626" departLane="free"/>
  <flow id="JF172100" begin="360" fromJunction="J7" toJunction="J4" end="420" vehsPerHour="26.59122928664201" departLane="free"/>
  <flow id="JF172101" begin="360" fromJunction="J7" toJunction="J6" end="420" vehsPerHour="2.2058227960955206" departLane="free"/>
  <flow id="JF172102" begin="360" fromJunction="J5" toJunction="J3" end="420" vehsPerHour="85.54662411775546" departLane="free"/>
  <flow id="JF172103" begin="360" fromJunction="J5" toJunction="J0" end="420" vehsPerHour="244.95570920321833" departLane="free"/>
  <flow id="JF172104" begin="360" fromJunction="J4" toJunction="J3" end="420" vehsPerHour="198.18710528450464" departLane="free"/>
  <flow id="JF172105" begin="360" fromJunction="J4" toJunction="J0" end="420" vehsPerHour="223.10716693301893" departLane="free"/>
  <flow id="JF172106" begin="360" fromJunction="J6" toJunction="J3" end="420" vehsPerHour="198.2096887186925" departLane="free"/>
  <flow id="JF172107" begin="360" fromJunction="J6" toJunction="J0" end="420" vehsPerHour="42.055570553596496" departLane="free"/>
  <flow id="JF172108" begin="360" fromJunction="J7" toJunction="J3" end="420" vehsPerHour="193.66141404706778" departLane="free"/>
  <flow id="JF172109" begin="360" fromJunction="J7" toJunction="J0" end="420" vehsPerHour="173.01209242128405" departLane="free"/>
  <flow id="JF172110" begin="420" fromJunction="J3" toJunction="J0" end="480" vehsPerHour="95.5506682830353" departLane="free"/>
  <flow id="JF172111" begin="420" fromJunction="J0" toJunction="J3" end="480" vehsPerHour="117.9743983566891" departLane="free"/>
  <flow id="JF172112" begin="420" fromJunction="J3" toJunction="J5" end="480" vehsPerHour="405.8974730176362" departLane="free"/>
  <flow id="JF172113" begin="420" fromJunction="J3" toJunction="J4" end="480" vehsPerHour="373.1442417921039" departLane="free"/>
  <flow id="JF172114" begin="420" fromJunction="J3" toJunction="J6" end="480" vehsPerHour="241.0661440657221" departLane="free"/>
  <flow id="JF172115" begin="420" fromJunction="J3" toJunction="J7" end="480" vehsPerHour="37.64787000551866" departLane="free"/>
  <flow id="JF172116" begin="420" fromJunction="J0" toJunction="J5" end="480" vehsPerHour="347.19415377472" departLane="free"/>
  <flow id="JF172117" begin="420" fromJunction="J0" toJunction="J4" end="480" vehsPerHour="146.6401838898559" departLane="free"/>
  <flow id="JF172118" begin="420" fromJunction="J0" toJunction="J6" end="480" vehsPerHour="370.4097490891234" departLane="free"/>
  <flow id="JF172119" begin="420" fromJunction="J0" toJunction="J7" end="480" vehsPerHour="255.05939825679386" departLane="free"/>
  <flow id="JF172120" begin="420" fromJunction="J5" toJunction="J4" end="480" vehsPerHour="55.88800101447586" departLane="free"/>
  <flow id="JF172121" begin="420" fromJunction="J5" toJunction="J6" end="480" vehsPerHour="4.048196091751266" departLane="free"/>
  <flow id="JF172122" begin="420" fromJunction="J5" toJunction="J7" end="480" vehsPerHour="1.4659600014203058" departLane="free"/>
  <flow id="JF172123" begin="420" fromJunction="J4" toJunction="J5" end="480" vehsPerHour="33.89606600212354" departLane="free"/>
  <flow id="JF172124" begin="420" fromJunction="J4" toJunction="J6" end="480" vehsPerHour="18.36569142232699" departLane="free"/>
  <flow id="JF172125" begin="420" fromJunction="J4" toJunction="J7" end="480" vehsPerHour="56.70961103262673" departLane="free"/>
  <flow id="JF172126" begin="420" fromJunction="J6" toJunction="J5" end="480" vehsPerHour="19.815606961148134" departLane="free"/>
  <flow id="JF172127" begin="420" fromJunction="J6" toJunction="J4" end="480" vehsPerHour="0.4120250520539615" departLane="free"/>
  <flow id="JF172128" begin="420" fromJunction="J6" toJunction="J7" end="480" vehsPerHour="58.90869588064415" departLane="free"/>
  <flow id="JF172129" begin="420" fromJunction="J7" toJunction="J5" end="480" vehsPerHour="16.871706418137578" departLane="free"/>
  <flow id="JF172130" begin="420" fromJunction="J7" toJunction="J4" end="480" vehsPerHour="7.503995673176743" departLane="free"/>
  <flow id="JF172131" begin="420" fromJunction="J7" toJunction="J6" end="480" vehsPerHour="10.799124372039623" departLane="free"/>
  <flow id="JF172132" begin="420" fromJunction="J5" toJunction="J3" end="480" vehsPerHour="202.55537685598094" departLane="free"/>
  <flow id="JF172133" begin="420" fromJunction="J5" toJunction="J0" end="480" vehsPerHour="83.85574691088387" departLane="free"/>
  <flow id="JF172134" begin="420" fromJunction="J4" toJunction="J3" end="480" vehsPerHour="55.782467476319816" departLane="free"/>
  <flow id="JF172135" begin="420" fromJunction="J4" toJunction="J0" end="480" vehsPerHour="180.5569412907266" departLane="free"/>
  <flow id="JF172136" begin="420" fromJunction="J6" toJunction="J3" end="480" vehsPerHour="147.10360009834108" departLane="free"/>
  <flow id="JF172137" begin="420" fromJunction="J6" toJunction="J0" end="480" vehsPerHour="151.82500856151577" departLane="free"/>
  <flow id="JF172138" begin="420" fromJunction="J7" toJunction="J3" end="480" vehsPerHour="187.60510106331125" departLane="free"/>
  <flow id="JF172139" begin="420" fromJunction="J7" toJunction="J0" end="480" vehsPerHour="70.9416219935254" departLane="free"/>
  <flow id="JF172140" begin="480" fromJunction="J3" toJunction="J0" end="540" vehsPerHour="85.43014770215984" departLane="free"/>
  <flow id="JF172141" begin="480" fromJunction="J0" toJunction="J3" end="540" vehsPerHour="65.72147034137848" departLane="free"/>
  <flow id="JF172142" begin="480" fromJunction="J3" toJunction="J5" end="540" vehsPerHour="521.1155722479831" departLane="free"/>
  <flow id="JF172143" begin="480" fromJunction="J3" toJunction="J4" end="540" vehsPerHour="193.77207376995062" departLane="free"/>
  <flow id="JF172144" begin="480" fromJunction="J3" toJunction="J6" end="540" vehsPerHour="226.30225257290957" departLane="free"/>
  <flow id="JF172145" begin="480" fromJunction="J3" toJunction="J7" end="540" vehsPerHour="280.53138891366024" departLane="free"/>
  <flow id="JF172146" begin="480" fromJunction="J0" toJunction="J5" end="540" vehsPerHour="460.6320141058835" departLane="free"/>
  <flow id="JF172147" begin="480" fromJunction="J0" toJunction="J4" end="540" vehsPerHour="76.99804016699817" departLane="free"/>
  <flow id="JF172148" begin="480" fromJunction="J0" toJunction="J6" end="540" vehsPerHour="113.46634956121285" departLane="free"/>