<?xml version="1.0" encoding="UTF-8"?>

<!-- generated on 2025-03-16 12:40:06 by Eclipse SUMO netedit Version 1.20.0
<configuration xmlns:xsi="http://www.w3.org/2001/XMLSchema-instance" xsi:noNamespaceSchemaLocation="http://sumo.dlr.de/xsd/neteditConfiguration.xsd">

    <input>
        <sumocfg-file value="/home/refo/Documents/Github/sumo-rl/scenarios/breda/simulation.sumocfg"/>
        <route-files value="/home/refo/Documents/Github/sumo-rl/scenarios/breda/routes.rou.xml"/>
        <sumo-net-file value="/home/refo/Documents/Github/sumo-rl/scenarios/breda/network.net.xml"/>
    </input>

    <output>
        <output-file value="/home/refo/Documents/Github/sumo-rl/scenarios/breda/network.net.xml"/>
    </output>

    <processing>
        <offset.disable-normalization value="true"/>
    </processing>

    <junctions>
        <no-turnarounds value="true"/>
    </junctions>

    <netedit>
        <new-network value="false"/>
    </netedit>

</configuration>
-->

<net version="1.20" junctionCornerDetail="5" limitTurnSpeed="5.50" xmlns:xsi="http://www.w3.org/2001/XMLSchema-instance" xsi:noNamespaceSchemaLocation="http://sumo.dlr.de/xsd/net_file.xsd">

    <location netOffset="0.00,0.00" convBoundary="-51.56,-72.72,411.22,181.35" origBoundary="-10000000000.00,-10000000000.00,10000000000.00,10000000000.00" projParameter="!"/>

    <edge id=":J1_0" function="internal">
        <lane id=":J1_0_0" index="0" speed="6.61" length="9.25" shape="102.96,38.11 100.44,38.47 98.63,39.54 97.53,41.32 97.14,43.80"/>
    </edge>
    <edge id=":J1_1" function="internal">
        <lane id=":J1_1_0" index="0" speed="13.89" length="14.58" shape="102.96,38.11 88.38,38.15"/>
        <lane id=":J1_1_1" index="1" speed="13.89" length="14.58" shape="102.96,34.91 88.37,34.95"/>
    </edge>
    <edge id=":J1_3" function="internal">
        <lane id=":J1_3_0" index="0" speed="8.65" length="3.74" shape="102.96,34.91 99.28,34.21"/>
    </edge>
    <edge id=":J1_14" function="internal">
        <lane id=":J1_14_0" index="0" speed="8.65" length="13.19" shape="99.28,34.21 99.07,34.17 96.31,31.91 94.68,28.15 94.18,22.87"/>
    </edge>
    <edge id=":J1_4" function="internal">
        <lane id=":J1_4_0" index="0" speed="6.48" length="9.03" shape="97.38,22.90 97.71,25.36 98.74,27.12 100.49,28.17 102.94,28.51"/>
    </edge>
    <edge id=":J1_5" function="internal">
        <lane id=":J1_5_0" index="0" speed="13.89" length="20.89" shape="97.38,22.90 97.14,43.80"/>
    </edge>
    <edge id=":J1_6" function="internal">
        <lane id=":J1_6_0" index="0" speed="8.75" length="5.57" shape="97.38,22.90 96.77,28.17 96.66,28.42"/>
    </edge>
    <edge id=":J1_15" function="internal">
        <lane id=":J1_15_0" index="0" speed="8.75" length="11.42" shape="96.66,28.42 95.06,31.93 92.26,34.19 88.37,34.95"/>
    </edge>
    <edge id=":J1_7" function="internal">
        <lane id=":J1_7_0" index="0" speed="6.61" length="9.25" shape="88.36,28.55 90.88,28.19 92.69,27.12 93.80,25.35 94.18,22.87"/>
    </edge>
    <edge id=":J1_8" function="internal">
        <lane id=":J1_8_0" index="0" speed="13.89" length="14.58" shape="88.36,28.55 102.94,28.51"/>
        <lane id=":J1_8_1" index="1" speed="13.89" length="14.58" shape="88.37,31.75 102.95,31.71"/>
    </edge>
    <edge id=":J1_10" function="internal">
        <lane id=":J1_10_0" index="0" speed="8.65" length="3.74" shape="88.37,31.75 92.04,32.45"/>
    </edge>
    <edge id=":J1_16" function="internal">
        <lane id=":J1_16_0" index="0" speed="8.65" length="13.19" shape="92.04,32.45 92.26,32.49 95.02,34.75 96.64,38.52 97.14,43.80"/>
    </edge>
    <edge id=":J1_11" function="internal">
        <lane id=":J1_11_0" index="0" speed="6.48" length="9.03" shape="93.94,43.76 93.61,41.30 92.58,39.54 90.84,38.49 88.38,38.15"/>
    </edge>
    <edge id=":J1_12" function="internal">
        <lane id=":J1_12_0" index="0" speed="13.89" length="20.89" shape="93.94,43.76 94.18,22.87"/>
    </edge>
    <edge id=":J1_13" function="internal">
        <lane id=":J1_13_0" index="0" speed="8.75" length="5.56" shape="93.94,43.76 94.55,38.50 94.66,38.25"/>
    </edge>
    <edge id=":J1_17" function="internal">
        <lane id=":J1_17_0" index="0" speed="8.75" length="11.42" shape="94.66,38.25 96.26,34.73 99.06,32.47 102.95,31.71"/>
    </edge>
    <edge id=":J2_0" function="internal">
        <lane id=":J2_0_0" index="0" speed="7.77" length="11.20" shape="257.11,37.70 254.16,38.14 251.87,39.38 250.24,41.41 249.26,44.25"/>
    </edge>
    <edge id=":J2_1" function="internal">
        <lane id=":J2_1_0" index="0" speed="13.89" length="15.76" shape="257.11,37.70 241.34,37.80"/>
        <lane id=":J2_1_1" index="1" speed="13.89" length="15.76" shape="257.07,34.50 241.33,34.60"/>
    </edge>
    <edge id=":J2_3" function="internal">
        <lane id=":J2_3_0" index="0" speed="8.69" length="3.72" shape="257.07,34.50 253.41,33.83"/>
    </edge>
    <edge id=":J2_14" function="internal">
        <lane id=":J2_14_0" index="0" speed="8.69" length="13.15" shape="253.41,33.83 253.23,33.79 250.45,31.57 248.75,27.82 248.12,22.56"/>
    </edge>
    <edge id=":J2_4" function="internal">
        <lane id=":J2_4_0" index="0" speed="6.53" length="9.08" shape="251.32,22.51 251.71,24.98 252.79,26.74 254.55,27.78 257.00,28.10"/>
    </edge>
    <edge id=":J2_5" function="internal">
        <lane id=":J2_5_0" index="0" speed="13.89" length="21.86" shape="251.32,22.51 251.17,27.33 250.69,33.42 250.01,39.49 249.26,44.25"/>
    </edge>
    <edge id=":J2_6" function="internal">
        <lane id=":J2_6_0" index="0" speed="8.88" length="6.03" shape="251.32,22.51 250.77,27.79 250.45,28.44"/>
    </edge>
    <edge id=":J2_15" function="internal">
        <lane id=":J2_15_0" index="0" speed="8.88" length="11.87" shape="250.45,28.44 248.92,31.57 245.77,33.83 241.33,34.60"/>
    </edge>
    <edge id=":J2_7" function="internal">
        <lane id=":J2_7_0" index="0" speed="6.81" length="10.08" shape="241.31,28.20 244.33,27.84 246.46,26.78 247.73,25.02 248.12,22.56"/>
    </edge>
    <edge id=":J2_8" function="internal">
        <lane id=":J2_8_0" index="0" speed="13.89" length="15.70" shape="241.31,28.20 257.00,28.10"/>
        <lane id=":J2_8_1" index="1" speed="13.89" length="15.70" shape="241.32,31.40 257.04,31.30"/>
    </edge>
    <edge id=":J2_10" function="internal">
        <lane id=":J2_10_0" index="0" speed="8.38" length="3.92" shape="241.32,31.40 245.18,32.09"/>
    </edge>
    <edge id=":J2_16" function="internal">
        <lane id=":J2_16_0" index="0" speed="8.38" length="14.13" shape="245.18,32.09 245.76,32.19 248.57,34.60 249.73,38.62 249.26,44.25"/>
    </edge>
    <edge id=":J2_11" function="internal">
        <lane id=":J2_11_0" index="0" speed="6.12" length="9.06" shape="246.12,43.63 246.26,41.07 245.51,39.25 243.87,38.16 241.34,37.80"/>
    </edge>
    <edge id=":J2_12" function="internal">
        <lane id=":J2_12_0" index="0" speed="13.89" length="21.18" shape="246.12,43.63 246.86,38.97 247.52,33.13 247.98,27.27 248.12,22.56"/>
    </edge>
    <edge id=":J2_13" function="internal">
        <lane id=":J2_13_0" index="0" speed="9.69" length="5.15" shape="246.12,43.63 247.60,38.69"/>
    </edge>
    <edge id=":J2_17" function="internal">
        <lane id=":J2_17_0" index="0" speed="9.69" length="12.76" shape="247.60,38.69 247.72,38.27 250.08,34.43 253.18,32.11 257.04,31.30"/>
    </edge>

    <edge id="-E0" from="J1" to="J0" priority="1" spreadType="center" shape="95.74,36.53 -51.54,36.88">
        <lane id="-E0_0" index="0" speed="13.89" length="139.92" shape="88.38,38.15 -51.54,38.48"/>
        <lane id="-E0_1" index="1" speed="13.89" length="139.92" shape="88.37,34.95 -51.55,35.28"/>
    </edge>
    <edge id="-E1" from="J2" to="J1" priority="2" spreadType="center" shape="249.96,36.18 95.67,36.53">
        <lane id="-E1_0" index="0" speed="13.89" length="138.37" shape="241.34,37.80 102.96,38.11"/>
        <lane id="-E1_1" index="1" speed="13.89" length="138.37" shape="241.33,34.60 102.96,34.91"/>
    </edge>
    <edge id="-E2" from="J3" to="J2" priority="1" spreadType="center" shape="411.22,34.43 249.92,36.18">
        <lane id="-E2_0" index="0" speed="13.89" length="154.14" shape="411.23,36.03 257.11,37.70"/>
        <lane id="-E2_1" index="1" speed="13.89" length="154.14" shape="411.20,32.83 257.07,34.50"/>
    </edge>
    <edge id="-E3" from="J4" to="J1" priority="-1" spreadType="center" shape="92.97,122.43 94.06,33.31">
        <lane id="-E3_0" index="0" speed="13.89" length="78.67" shape="92.97,122.43 93.94,43.76"/>
    </edge>
    <edge id="-E4" from="J5" to="J1" priority="-1" spreadType="center" shape="98.49,-72.68 97.26,33.35">
        <lane id="-E4_0" index="0" speed="13.89" length="95.59" shape="98.49,-72.68 97.38,22.90"/>
    </edge>
    <edge id="-E5" from="J6" to="J2" priority="-1" spreadType="center" shape="250.40,-36.50 251.49,32.95">
        <lane id="-E5_0" index="0" speed="13.89" length="59.02" shape="250.40,-36.50 251.32,22.51"/>
    </edge>
    <edge id="-E6" from="J7" to="J2" priority="-1" spreadType="center" shape="218.69,180.72 248.32,32.67">
        <lane id="-E6_0" index="0" speed="13.89" length="139.81" shape="218.69,180.72 246.12,43.63"/>
    </edge>
    <edge id="E0" from="J0" to="J1" priority="1" spreadType="center" shape="-51.56,30.48 95.73,30.13">
        <lane id="E0_0" index="0" speed="13.89" length="139.92" shape="-51.56,28.88 88.36,28.55"/>
        <lane id="E0_1" index="1" speed="13.89" length="139.92" shape="-51.55,32.08 88.37,31.75"/>
    </edge>
    <edge id="E1" from="J1" to="J2" priority="2" spreadType="center" shape="95.66,30.13 249.94,29.78">
        <lane id="E1_0" index="0" speed="13.89" length="138.37" shape="102.94,28.51 241.31,28.20"/>
        <lane id="E1_1" index="1" speed="13.89" length="138.37" shape="102.95,31.71 241.32,31.40"/>
    </edge>
    <edge id="E2" from="J2" to="J3" priority="1" spreadType="center" shape="249.85,29.78 411.15,28.03">
        <lane id="E2_0" index="0" speed="13.89" length="154.14" shape="257.00,28.10 411.13,26.43"/>
        <lane id="E2_1" index="1" speed="13.89" length="154.14" shape="257.04,31.30 411.16,29.63"/>
    </edge>
    <edge id="E3" from="J1" to="J4" priority="-1" spreadType="center" shape="97.26,33.35 96.17,122.46">
        <lane id="E3_0" index="0" speed="13.89" length="78.67" shape="97.14,43.80 96.17,122.46"/>
    </edge>
    <edge id="E4" from="J1" to="J5" priority="-1" spreadType="center" shape="94.06,33.31 95.29,-72.72">
        <lane id="E4_0" index="0" speed="13.89" length="95.59" shape="94.18,22.87 95.29,-72.72"/>
    </edge>
    <edge id="E5" from="J2" to="J6" priority="-1" spreadType="center" shape="248.29,33.01 247.20,-36.44">
        <lane id="E5_0" index="0" speed="13.89" length="59.02" shape="248.12,22.56 247.20,-36.44"/>
    </edge>
    <edge id="E6" from="J2" to="J7" priority="-1" spreadType="center" shape="251.45,33.29 221.83,181.35">
        <lane id="E6_0" index="0" speed="13.89" length="139.81" shape="249.26,44.25 221.83,181.35"/>
    </edge>

    <tlLogic id="J1" type="static" programID="0" offset="0">
        <phase duration="42" state="GGGgrrrGGGgrrr"/>
        <phase duration="3"  state="yyyyrrryyyyrrr"/>
        <phase duration="42" state="rrrrGGgrrrrGGg"/>
        <phase duration="3"  state="rrrryyyrrrryyy"/>
    </tlLogic>
    <tlLogic id="J2" type="static" programID="0" offset="0">
        <phase duration="42" state="GGGgrrrGGGgrrr"/>
        <phase duration="3"  state="yyyyrrryyyyrrr"/>
        <phase duration="42" state="rrrrGGgrrrrGGg"/>
        <phase duration="3"  state="rrrryyyrrrryyy"/>
    </tlLogic>

    <junction id="J0" type="dead_end" x="-51.55" y="33.68" incLanes="-E0_0 -E0_1" intLanes="" shape="-51.55,33.68 -51.53,40.08 -51.55,33.68"/>
    <junction id="J1" type="traffic_light" x="95.66" y="33.33" incLanes="-E1_0 -E1_1 -E4_0 E0_0 E0_1 -E3_0" intLanes=":J1_0_0 :J1_1_0 :J1_1_1 :J1_14_0 :J1_4_0 :J1_5_0 :J1_15_0 :J1_7_0 :J1_8_0 :J1_8_1 :J1_16_0 :J1_11_0 :J1_12_0 :J1_17_0" shape="102.97,39.71 102.94,26.91 100.72,26.47 99.95,25.92 99.40,25.14 99.08,24.15 98.98,22.92 92.58,22.85 92.09,25.12 91.50,25.92 90.68,26.49 89.63,26.83 88.35,26.95 88.38,39.75 90.60,40.19 91.37,40.74 91.92,41.52 92.24,42.52 92.34,43.74 98.74,43.82 99.23,41.54 99.82,40.74 100.64,40.17 101.69,39.83">
        <request index="0"  response="00000000000000" foes="00010000100000" cont="0"/>
        <request index="1"  response="10000001000000" foes="11110001100000" cont="0"/>
        <request index="2"  response="10000001000000" foes="11110001100000" cont="0"/>
        <request index="3"  response="10001111000000" foes="11001111100000" cont="1"/>
        <request index="4"  response="00001100000000" foes="00001100000000" cont="0"/>
        <request index="5"  response="00011100001111" foes="10011100001111" cont="0"/>
        <request index="6"  response="01011100001110" foes="01011100001110" cont="1"/>
        <request index="7"  response="00000000000000" foes="01000000001000" cont="0"/>
        <request index="8"  response="10000001000000" foes="11000001111000" cont="0"/>
        <request index="9"  response="10000001000000" foes="11000001111000" cont="0"/>
        <request index="10" response="10000001000111" foes="11000001100111" cont="1"/>
        <request index="11" response="00000000000110" foes="00000000000110" cont="0"/>
        <request index="12" response="00011110001110" foes="00011111001110" cont="0"/>
        <request index="13" response="00011100101110" foes="00011100101110" cont="1"/>
    </junction>
    <junction id="J2" type="traffic_light" x="249.89" y="32.98" incLanes="-E2_0 -E2_1 -E5_0 E1_0 E1_1 -E6_0" intLanes=":J2_0_0 :J2_1_0 :J2_1_1 :J2_14_0 :J2_4_0 :J2_5_0 :J2_15_0 :J2_7_0 :J2_8_0 :J2_8_1 :J2_16_0 :J2_11_0 :J2_12_0 :J2_17_0" shape="257.12,39.30 256.98,26.50 254.76,26.08 253.97,25.52 253.40,24.74 253.05,23.73 252.92,22.49 246.52,22.59 245.97,24.81 245.25,25.59 244.23,26.15 242.92,26.49 241.31,26.60 241.34,39.40 243.47,39.83 244.14,40.37 244.55,41.13 244.68,42.11 244.56,43.31 250.83,44.57 251.99,41.67 252.93,40.65 254.09,39.91 255.49,39.46">
        <request index="0"  response="00000000000000" foes="00010000100000" cont="0"/>
        <request index="1"  response="10000001000000" foes="11110001100000" cont="0"/>
        <request index="2"  response="10000001000000" foes="11110001100000" cont="0"/>
        <request index="3"  response="10001111000000" foes="11001111100000" cont="1"/>
        <request index="4"  response="00001100000000" foes="00001100000000" cont="0"/>
        <request index="5"  response="00011100001111" foes="10011100001111" cont="0"/>
        <request index="6"  response="01011100001110" foes="01011100001110" cont="1"/>
        <request index="7"  response="00000000000000" foes="01000000001000" cont="0"/>
        <request index="8"  response="10000001000000" foes="11000001111000" cont="0"/>
        <request index="9"  response="10000001000000" foes="11000001111000" cont="0"/>
        <request index="10" response="10000001000111" foes="11000001100111" cont="1"/>
        <request index="11" response="00000000000110" foes="00000000000110" cont="0"/>
        <request index="12" response="00011110001110" foes="00011111001110" cont="0"/>
        <request index="13" response="00011100101110" foes="00011100101110" cont="1"/>
    </junction>
    <junction id="J3" type="dead_end" x="411.12" y="31.23" incLanes="E2_0 E2_1" intLanes="" shape="411.12,31.23 411.05,24.83 411.12,31.23"/>
    <junction id="J4" type="dead_end" x="94.57" y="122.42" incLanes="E3_0" intLanes="" shape="94.57,122.42 97.77,122.46 94.57,122.42"/>
    <junction id="J5" type="dead_end" x="96.89" y="-72.68" incLanes="E4_0" intLanes="" shape="96.89,-72.68 93.69,-72.71 96.89,-72.68"/>
    <junction id="J6" type="dead_end" x="248.80" y="-36.43" incLanes="E5_0" intLanes="" shape="248.80,-36.43 245.60,-36.38 248.80,-36.43"/>
    <junction id="J7" type="dead_end" x="220.27" y="181.02" incLanes="E6_0" intLanes="" shape="220.27,181.02 223.40,181.65 220.27,181.02"/>

    <junction id=":J1_14_0" type="internal" x="99.28" y="34.21" incLanes=":J1_3_0 E0_0 E0_1" intLanes=":J1_5_0 :J1_6_0 :J1_7_0 :J1_8_0 :J1_8_1 :J1_12_0 :J1_13_0"/>
    <junction id=":J1_15_0" type="internal" x="96.66" y="28.42" incLanes=":J1_6_0 -E3_0" intLanes=":J1_1_0 :J1_1_1 :J1_3_0 :J1_8_0 :J1_8_1 :J1_10_0 :J1_11_0 :J1_12_0"/>
    <junction id=":J1_16_0" type="internal" x="92.04" y="32.45" incLanes=":J1_10_0 -E1_0 -E1_1" intLanes=":J1_0_0 :J1_1_0 :J1_1_1 :J1_5_0 :J1_6_0 :J1_12_0 :J1_13_0"/>
    <junction id=":J1_17_0" type="internal" x="94.66" y="38.25" incLanes=":J1_13_0 -E4_0" intLanes=":J1_1_0 :J1_1_1 :J1_3_0 :J1_4_0 :J1_5_0 :J1_8_0 :J1_8_1 :J1_10_0"/>
    <junction id=":J2_14_0" type="internal" x="253.41" y="33.83" incLanes=":J2_3_0 E1_0 E1_1" intLanes=":J2_5_0 :J2_6_0 :J2_7_0 :J2_8_0 :J2_8_1 :J2_12_0 :J2_13_0"/>
    <junction id=":J2_15_0" type="internal" x="250.45" y="28.44" incLanes=":J2_6_0 -E6_0" intLanes=":J2_1_0 :J2_1_1 :J2_3_0 :J2_8_0 :J2_8_1 :J2_10_0 :J2_11_0 :J2_12_0"/>
    <junction id=":J2_16_0" type="internal" x="245.18" y="32.09" incLanes=":J2_10_0 -E2_0 -E2_1" intLanes=":J2_0_0 :J2_1_0 :J2_1_1 :J2_5_0 :J2_6_0 :J2_12_0 :J2_13_0"/>
    <junction id=":J2_17_0" type="internal" x="247.60" y="38.69" incLanes=":J2_13_0 -E5_0" intLanes=":J2_1_0 :J2_1_1 :J2_3_0 :J2_4_0 :J2_5_0 :J2_8_0 :J2_8_1 :J2_10_0"/>

    <connection from="-E1" to="E3" fromLane="0" toLane="0" via=":J1_0_0" tl="J1" linkIndex="0" dir="r" state="O"/>
    <connection from="-E1" to="-E0" fromLane="0" toLane="0" via=":J1_1_0" tl="J1" linkIndex="1" dir="s" state="O"/>
    <connection from="-E1" to="-E0" fromLane="1" toLane="1" via=":J1_1_1" tl="J1" linkIndex="2" dir="s" state="O"/>
    <connection from="-E1" to="E4" fromLane="1" toLane="0" via=":J1_3_0" tl="J1" linkIndex="3" dir="l" state="o"/>
    <connection from="-E2" to="E6" fromLane="0" toLane="0" via=":J2_0_0" tl="J2" linkIndex="0" dir="r" state="O"/>
    <connection from="-E2" to="-E1" fromLane="0" toLane="0" via=":J2_1_0" tl="J2" linkIndex="1" dir="s" state="O"/>
    <connection from="-E2" to="-E1" fromLane="1" toLane="1" via=":J2_1_1" tl="J2" linkIndex="2" dir="s" state="O"/>
    <connection from="-E2" to="E5" fromLane="1" toLane="0" via=":J2_3_0" tl="J2" linkIndex="3" dir="l" state="o"/>
    <connection from="-E3" to="-E0" fromLane="0" toLane="0" via=":J1_11_0" tl="J1" linkIndex="11" dir="r" state="o"/>
    <connection from="-E3" to="E4" fromLane="0" toLane="0" via=":J1_12_0" tl="J1" linkIndex="12" dir="s" state="o"/>
    <connection from="-E3" to="E1" fromLane="0" toLane="1" via=":J1_13_0" tl="J1" linkIndex="13" dir="l" state="o"/>
    <connection from="-E4" to="E1" fromLane="0" toLane="0" via=":J1_4_0" tl="J1" linkIndex="4" dir="r" state="o"/>
    <connection from="-E4" to="E3" fromLane="0" toLane="0" via=":J1_5_0" tl="J1" linkIndex="5" dir="s" state="o"/>
    <connection from="-E4" to="-E0" fromLane="0" toLane="1" via=":J1_6_0" tl="J1" linkIndex="6" dir="l" state="o"/>
    <connection from="-E5" to="E2" fromLane="0" toLane="0" via=":J2_4_0" tl="J2" linkIndex="4" dir="r" state="o"/>
    <connection from="-E5" to="E6" fromLane="0" toLane="0" via=":J2_5_0" tl="J2" linkIndex="5" dir="s" state="o"/>
    <connection from="-E5" to="-E1" fromLane="0" toLane="1" via=":J2_6_0" tl="J2" linkIndex="6" dir="l" state="o"/>
    <connection from="-E6" to="-E1" fromLane="0" toLane="0" via=":J2_11_0" tl="J2" linkIndex="11" dir="r" state="o"/>
    <connection from="-E6" to="E5" fromLane="0" toLane="0" via=":J2_12_0" tl="J2" linkIndex="12" dir="s" state="o"/>
    <connection from="-E6" to="E2" fromLane="0" toLane="1" via=":J2_13_0" tl="J2" linkIndex="13" dir="l" state="o"/>
    <connection from="E0" to="E4" fromLane="0" toLane="0" via=":J1_7_0" tl="J1" linkIndex="7" dir="r" state="O"/>
    <connection from="E0" to="E1" fromLane="0" toLane="0" via=":J1_8_0" tl="J1" linkIndex="8" dir="s" state="O"/>
    <connection from="E0" to="E1" fromLane="1" toLane="1" via=":J1_8_1" tl="J1" linkIndex="9" dir="s" state="O"/>
    <connection from="E0" to="E3" fromLane="1" toLane="0" via=":J1_10_0" tl="J1" linkIndex="10" dir="l" state="o"/>
    <connection from="E1" to="E5" fromLane="0" toLane="0" via=":J2_7_0" tl="J2" linkIndex="7" dir="r" state="O"/>
    <connection from="E1" to="E2" fromLane="0" toLane="0" via=":J2_8_0" tl="J2" linkIndex="8" dir="s" state="O"/>
    <connection from="E1" to="E2" fromLane="1" toLane="1" via=":J2_8_1" tl="J2" linkIndex="9" dir="s" state="O"/>
    <connection from="E1" to="E6" fromLane="1" toLane="0" via=":J2_10_0" tl="J2" linkIndex="10" dir="l" state="o"/>

    <connection from=":J1_0" to="E3" fromLane="0" toLane="0" dir="r" state="M"/>
    <connection from=":J1_1" to="-E0" fromLane="0" toLane="0" dir="s" state="M"/>
    <connection from=":J1_1" to="-E0" fromLane="1" toLane="1" dir="s" state="M"/>
    <connection from=":J1_3" to="E4" fromLane="0" toLane="0" via=":J1_14_0" dir="l" state="m"/>
    <connection from=":J1_14" to="E4" fromLane="0" toLane="0" dir="l" state="M"/>
    <connection from=":J1_4" to="E1" fromLane="0" toLane="0" dir="r" state="M"/>
    <connection from=":J1_5" to="E3" fromLane="0" toLane="0" dir="s" state="M"/>
    <connection from=":J1_6" to="-E0" fromLane="0" toLane="1" via=":J1_15_0" dir="l" state="m"/>
    <connection from=":J1_15" to="-E0" fromLane="0" toLane="1" dir="l" state="M"/>
    <connection from=":J1_7" to="E4" fromLane="0" toLane="0" dir="r" state="M"/>
    <connection from=":J1_8" to="E1" fromLane="0" toLane="0" dir="s" state="M"/>
    <connection from=":J1_8" to="E1" fromLane="1" toLane="1" dir="s" state="M"/>
    <connection from=":J1_10" to="E3" fromLane="0" toLane="0" via=":J1_16_0" dir="l" state="m"/>
    <connection from=":J1_16" to="E3" fromLane="0" toLane="0" dir="l" state="M"/>
    <connection from=":J1_11" to="-E0" fromLane="0" toLane="0" dir="r" state="M"/>
    <connection from=":J1_12" to="E4" fromLane="0" toLane="0" dir="s" state="M"/>
    <connection from=":J1_13" to="E1" fromLane="0" toLane="1" via=":J1_17_0" dir="l" state="m"/>
    <connection from=":J1_17" to="E1" fromLane="0" toLane="1" dir="l" state="M"/>
    <connection from=":J2_0" to="E6" fromLane="0" toLane="0" dir="r" state="M"/>
    <connection from=":J2_1" to="-E1" fromLane="0" toLane="0" dir="s" state="M"/>
    <connection from=":J2_1" to="-E1" fromLane="1" toLane="1" dir="s" state="M"/>
    <connection from=":J2_3" to="E5" fromLane="0" toLane="0" via=":J2_14_0" dir="l" state="m"/>
    <connection from=":J2_14" to="E5" fromLane="0" toLane="0" dir="l" state="M"/>
    <connection from=":J2_4" to="E2" fromLane="0" toLane="0" dir="r" state="M"/>
    <connection from=":J2_5" to="E6" fromLane="0" toLane="0" dir="s" state="M"/>
    <connection from=":J2_6" to="-E1" fromLane="0" toLane="1" via=":J2_15_0" dir="l" state="m"/>
    <connection from=":J2_15" to="-E1" fromLane="0" toLane="1" dir="l" state="M"/>
    <connection from=":J2_7" to="E5" fromLane="0" toLane="0" dir="r" state="M"/>
    <connection from=":J2_8" to="E2" fromLane="0" toLane="0" dir="s" state="M"/>
    <connection from=":J2_8" to="E2" fromLane="1" toLane="1" dir="s" state="M"/>
    <connection from=":J2_10" to="E6" fromLane="0" toLane="0" via=":J2_16_0" dir="l" state="m"/>
    <connection from=":J2_16" to="E6" fromLane="0" toLane="0" dir="l" state="M"/>
    <connection from=":J2_11" to="-E1" fromLane="0" toLane="0" dir="r" state="M"/>
    <connection from=":J2_12" to="E5" fromLane="0" toLane="0" dir="s" state="M"/>
    <connection from=":J2_13" to="E2" fromLane="0" toLane="1" via=":J2_17_0" dir="l" state="m"/>
    <connection from=":J2_17" to="E2" fromLane="0" toLane="1" dir="l" state="M"/>

</net>
