<?xml version="1.0" encoding="UTF-8"?>
<routes xmlns:xsi="http://www.w3.org/2001/XMLSchema-instance" xsi:noNamespaceSchemaLocation="http://sumo.dlr.de/xsd/routes_file.xsd">
  <flow id="JF152140" begin="0" fromJunction="J3" toJunction="J0" end="60" vehsPerHour="126.21983864139459" departLane="free"/>
  <flow id="JF152141" begin="0" fromJunction="J0" toJunction="J3" end="60" vehsPerHour="45.39997442553861" departLane="free"/>
  <flow id="JF152142" begin="0" fromJunction="J3" toJunction="J5" end="60" vehsPerHour="65.82961846853897" departLane="free"/>
  <flow id="JF152143" begin="0" fromJunction="J3" toJunction="J7" end="60" vehsPerHour="42.70535884061275" departLane="free"/>
  <flow id="JF152144" begin="0" fromJunction="J3" toJunction="J6" end="60" vehsPerHour="260.5238544546233" departLane="free"/>
  <flow id="JF152145" begin="0" fromJunction="J3" toJunction="J4" end="60" vehsPerHour="85.63427656604941" departLane="free"/>
  <flow id="JF152146" begin="0" fromJunction="J0" toJunction="J5" end="60" vehsPerHour="270.06363079198286" departLane="free"/>
  <flow id="JF152147" begin="0" fromJunction="J0" toJunction="J7" end="60" vehsPerHour="193.3525683949492" departLane="free"/>
  <flow id="JF152148" begin="0" fromJunction="J0" toJunction="J6" end="60" vehsPerHour="203.57016147884357" departLane="free"/>
  <flow id="JF152149" begin="0" fromJunction="J0" toJunction="J4" end="60" vehsPerHour="121.96820786163306" departLane="free"/>
  <flow id="JF152150" begin="0" fromJunction="J5" toJunction="J7" end="60" vehsPerHour="34.29913035723346" departLane="free"/>
  <flow id="JF152151" begin="0" fromJunction="J5" toJunction="J6" end="60" vehsPerHour="29.23973344521741" departLane="free"/>
  <flow id="JF152152" begin="0" fromJunction="J5" toJunction="J4" end="60" vehsPerHour="6.512558333532406" departLane="free"/>
  <flow id="JF152153" begin="0" fromJunction="J7" toJunction="J5" end="60" vehsPerHour="26.713830954619862" departLane="free"/>
  <flow id="JF152154" begin="0" fromJunction="J7" toJunction="J6" end="60" vehsPerHour="8.856018642723821" departLane="free"/>
  <flow id="JF152155" begin="0" fromJunction="J7" toJunction="J4" end="60" vehsPerHour="8.04634496986502" departLane="free"/>
  <flow id="JF152156" begin="0" fromJunction="J6" toJunction="J5" end="60" vehsPerHour="17.93997720802927" departLane="free"/>
  <flow id="JF152157" begin="0" fromJunction="J6" toJunction="J7" end="60" vehsPerHour="2.254998888819994" departLane="free"/>
  <flow id="JF152158" begin="0" fromJunction="J6" toJunction="J4" end="60" vehsPerHour="67.59418834231764" departLane="free"/>
  <flow id="JF152159" begin="0" fromJunction="J4" toJunction="J5" end="60" vehsPerHour="25.025954434169034" departLane="free"/>
  <flow id="JF152160" begin="0" fromJunction="J4" toJunction="J7" end="60" vehsPerHour="17.911653827755067" departLane="free"/>
  <flow id="JF152161" begin="0" fromJunction="J4" toJunction="J6" end="60" vehsPerHour="5.575895184656768" departLane="free"/>
  <flow id="JF152162" begin="0" fromJunction="J5" toJunction="J3" end="60" vehsPerHour="94.81157345026253" departLane="free"/>
  <flow id="JF152163" begin="0" fromJunction="J5" toJunction="J0" end="60" vehsPerHour="245.67344197300827" departLane="free"/>
  <flow id="JF152164" begin="0" fromJunction="J7" toJunction="J3" end="60" vehsPerHour="38.23727811821054" departLane="free"/>
  <flow id="JF152165" begin="0" fromJunction="J7" toJunction="J0" end="60" vehsPerHour="69.35965991690618" departLane="free"/>
  <flow id="JF152166" begin="0" fromJunction="J6" toJunction="J3" end="60" vehsPerHour="7.430017960443458" departLane="free"/>
  <flow id="JF152167" begin="0" fromJunction="J6" toJunction="J0" end="60" vehsPerHour="39.61652064440587" departLane="free"/>
  <flow id="JF152168" begin="0" fromJunction="J4" toJunction="J3" end="60" vehsPerHour="169.57515037649262" departLane="free"/>
  <flow id="JF152169" begin="0" fromJunction="J4" toJunction="J0" end="60" vehsPerHour="273.79040896782044" departLane="free"/>
  <flow id="JF152170" begin="60" fromJunction="J3" toJunction="J0" end="120" vehsPerHour="30.054251332043087" departLane="free"/>
  <flow id="JF152171" begin="60" fromJunction="J0" toJunction="J3" end="120" vehsPerHour="30.398613173247725" departLane="free"/>
  <flow id="JF152172" begin="60" fromJunction="J3" toJunction="J5" end="120" vehsPerHour="159.94612551004795" departLane="free"/>
  <flow id="JF152173" begin="60" fromJunction="J3" toJunction="J7" end="120" vehsPerHour="98.37714170095546" departLane="free"/>
  <flow id="JF152174" begin="60" fromJunction="J3" toJunction="J6" end="120" vehsPerHour="180.37027311709096" departLane="free"/>
  <flow id="JF152175" begin="60" fromJunction="J3" toJunction="J4" end="120" vehsPerHour="250.80277710297898" departLane="free"/>
  <flow id="JF152176" begin="60" fromJunction="J0" toJunction="J5" end="120" vehsPerHour="246.9729039178158" departLane="free"/>
  <flow id="JF152177" begin="60" fromJunction="J0" toJunction="J7" end="120" vehsPerHour="150.39373973754746" departLane="free"/>
  <flow id="JF152178" begin="60" fromJunction="J0" toJunction="J6" end="120" vehsPerHour="177.97643609549624" departLane="free"/>
  <flow id="JF152179" begin="60" fromJunction="J0" toJunction="J4" end="120" vehsPerHour="11.30449387887974" departLane="free"/>
  <flow id="JF152180" begin="60" fromJunction="J5" toJunction="J7" end="120" vehsPerHour="19.479005649035553" departLane="free"/>
  <flow id="JF152181" begin="60" fromJunction="J5" toJunction="J6" end="120" vehsPerHour="2.114541692569678" departLane="free"/>
  <flow id="JF152182" begin="60" fromJunction="J5" toJunction="J4" end="120" vehsPerHour="39.20488406143758" departLane="free"/>
  <flow id="JF152183" begin="60" fromJunction="J7" toJunction="J5" end="120" vehsPerHour="47.3754698923517" departLane="free"/>
  <flow id="JF152184" begin="60" fromJunction="J7" toJunction="J6" end="120" vehsPerHour="1.175679665588601" departLane="free"/>
  <flow id="JF152185" begin="60" fromJunction="J7" toJunction="J4" end="120" vehsPerHour="65.46934287184463" departLane="free"/>
  <flow id="JF152186" begin="60" fromJunction="J6" toJunction="J5" end="120" vehsPerHour="42.299005723338254" departLane="free"/>
  <flow id="JF152187" begin="60" fromJunction="J6" toJunction="J7" end="120" vehsPerHour="29.155492472991586" departLane="free"/>
  <flow id="JF152188" begin="60" fromJunction="J6" toJunction="J4" end="120" vehsPerHour="50.66444700076146" departLane="free"/>
  <flow id="JF152189" begin="60" fromJunction="J4" toJunction="J5" end="120" vehsPerHour="5.070154627864431" departLane="free"/>
  <flow id="JF152190" begin="60" fromJunction="J4" toJunction="J7" end="120" vehsPerHour="33.14920271366026" departLane="free"/>
  <flow id="JF152191" begin="60" fromJunction="J4" toJunction="J6" end="120" vehsPerHour="10.285105498656552" departLane="free"/>
  <flow id="JF152192" begin="60" fromJunction="J5" toJunction="J3" end="120" vehsPerHour="251.78678360245652" departLane="free"/>
  <flow id="JF152193" begin="60" fromJunction="J5" toJunction="J0" end="120" vehsPerHour="238.80449535666955" departLane="free"/>
  <flow id="JF152194" begin="60" fromJunction="J7" toJunction="J3" end="120" vehsPerHour="24.186231534254" departLane="free"/>
  <flow id="JF152195" begin="60" fromJunction="J7" toJunction="J0" end="120" vehsPerHour="125.80690879991977" departLane="free"/>
  <flow id="JF152196" begin="60" fromJunction="J6" toJunction="J3" end="120" vehsPerHour="80.67010488550847" departLane="free"/>
  <flow id="JF152197" begin="60" fromJunction="J6" toJunction="J0" end="120" vehsPerHour="54.19090522274716" departLane="free"/>
  <flow id="JF152198" begin="60" fromJunction="J4" toJunction="J3" end="120" vehsPerHour="238.44999744408642" departLane="free"/>
  <flow id="JF152199" begin="60" fromJunction="J4" toJunction="J0" end="120" vehsPerHour="120.03984078606948" departLane="free"/>
  <flow id="JF152200" begin="120" fromJunction="J3" toJunction="J0" end="180" vehsPerHour="41.669737611218736" departLane="free"/>
  <flow id="JF152201" begin="120" fromJunction="J0" toJunction="J3" end="180" vehsPerHour="53.908816452955975" departLane="free"/>
  <flow id="JF152202" begin="120" fromJunction="J3" toJunction="J5" end="180" vehsPerHour="6.7275831039948235" departLane="free"/>
  <flow id="JF152203" begin="120" fromJunction="J3" toJunction="J7" end="180" vehsPerHour="154.27736884549483" departLane="free"/>
  <flow id="JF152204" begin="120" fromJunction="J3" toJunction="J6" end="180" vehsPerHour="195.91840241374828" departLane="free"/>
  <flow id="JF152205" begin="120" fromJunction="J3" toJunction="J4" end="180" vehsPerHour="145.16172127356347" departLane="free"/>
  <flow id="JF152206" begin="120" fromJunction="J0" toJunction="J5" end="180" vehsPerHour="127.876523943235" departLane="free"/>
  <flow id="JF152207" begin="120" fromJunction="J0" toJunction="J7" end="180" vehsPerHour="144.5698022124758" departLane="free"/>
  <flow id="JF152208" begin="120" fromJunction="J0" toJunction="J6" end="180" vehsPerHour="97.39546591582193" departLane="free"/>
  <flow id="JF152209" begin="120" fromJunction="J0" toJunction="J4" end="180" vehsPerHour="106.7605674575604" departLane="free"/>
  <flow id="JF152210" begin="120" fromJunction="J5" toJunction="J7" end="180" vehsPerHour="2.703509455955264" departLane="free"/>
  <flow id="JF152211" begin="120" fromJunction="J5" toJunction="J6" end="180" vehsPerHour="4.309825326028882" departLane="free"/>
  <flow id="JF152212" begin="120" fromJunction="J5" toJunction="J4" end="180" vehsPerHour="18.532574340641844" departLane="free"/>
  <flow id="JF152213" begin="120" fromJunction="J7" toJunction="J5" end="180" vehsPerHour="56.680281145969275" departLane="free"/>
  <flow id="JF152214" begin="120" fromJunction="J7" toJunction="J6" end="180" vehsPerHour="18.297283619828534" departLane="free"/>
  <flow id="JF152215" begin="120" fromJunction="J7" toJunction="J4" end="180" vehsPerHour="33.97346914323715" departLane="free"/>
  <flow id="JF152216" begin="120" fromJunction="J6" toJunction="J5" end="180" vehsPerHour="11.136421381860721" departLane="free"/>
  <flow id="JF152217" begin="120" fromJunction="J6" toJunction="J7" end="180" vehsPerHour="4.432837579398299" departLane="free"/>
  <flow id="JF152218" begin="120" fromJunction="J6" toJunction="J4" end="180" vehsPerHour="43.65038982265099" departLane="free"/>
  <flow id="JF152219" begin="120" fromJunction="J4" toJunction="J5" end="180" vehsPerHour="10.817348198313539" departLane="free"/>
  <flow id="JF152220" begin="120" fromJunction="J4" toJunction="J7" end="180" vehsPerHour="22.86342311247075" departLane="free"/>
  <flow id="JF152221" begin="120" fromJunction="J4" toJunction="J6" end="180" vehsPerHour="6.786161316082793" departLane="free"/>
  <flow id="JF152222" begin="120" fromJunction="J5" toJunction="J3" end="180" vehsPerHour="11.871403906805172" departLane="free"/>
  <flow id="JF152223" begin="120" fromJunction="J5" toJunction="J0" end="180" vehsPerHour="266.07889769499457" departLane="free"/>
  <flow id="JF152224" begin="120" fromJunction="J7" toJunction="J3" end="180" vehsPerHour="22.144005512157385" departLane="free"/>
  <flow id="JF152225" begin="120" fromJunction="J7" toJunction="J0" end="180" vehsPerHour="132.59864936140875" departLane="free"/>
  <flow id="JF152226" begin="120" fromJunction="J6" toJunction="J3" end="180" vehsPerHour="131.10356879373964" departLane="free"/>
  <flow id="JF152227" begin="120" fromJunction="J6" toJunction="J0" end="180" vehsPerHour="101.07108518129785" departLane="free"/>
  <flow id="JF152228" begin="120" fromJunction="J4" toJunction="J3" end="180" vehsPerHour="97.09660778590158" departLane="free"/>
  <flow id="JF152229" begin="120" fromJunction="J4" toJunction="J0" end="180" vehsPerHour="244.54291811479436" departLane="free"/>
  <flow id="JF152230" begin="180" fromJunction="J3" toJunction="J0" end="240" vehsPerHour="81.76106087454791" departLane="free"/>
  <flow id="JF152231" begin="180" fromJunction="J0" toJunction="J3" end="240" vehsPerHour="2.8124387648191957" departLane="free"/>
  <flow id="JF152232" begin="180" fromJunction="J3" toJunction="J5" end="240" vehsPerHour="249.06381867113976" departLane="free"/>
  <flow id="JF152233" begin="180" fromJunction="J3" toJunction="J7" end="240" vehsPerHour="227.05776414958436" departLane="free"/>
  <flow id="JF152234" begin="180" fromJunction="J3" toJunction="J6" end="240" vehsPerHour="315.0942499079299" departLane="free"/>
  <flow id="JF152235" begin="180" fromJunction="J3" toJunction="J4" end="240" vehsPerHour="130.86442702918674" departLane="free"/>
  <flow id="JF152236" begin="180" fromJunction="J0" toJunction="J5" end="240" vehsPerHour="268.10615417317365" departLane="free"/>
  <flow id="JF152237" begin="180" fromJunction="J0" toJunction="J7" end="240" vehsPerHour="154.83632469798846" departLane="free"/>
  <flow id="JF152238" begin="180" fromJunction="J0" toJunction="J6" end="240" vehsPerHour="376.75388454906704" departLane="free"/>
  <flow id="JF152239" begin="180" fromJunction="J0" toJunction="J4" end="240" vehsPerHour="263.1317823188297" departLane="free"/>
  <flow id="JF152240" begin="240" fromJunction="J3" toJunction="J0" end="300" vehsPerHour="108.35047460689667" departLane="free"/>
  <flow id="JF152241" begin="240" fromJunction="J0" toJunction="J3" end="300" vehsPerHour="25.603539808917013" departLane="free"/>
  <flow id="JF152242" begin="240" fromJunction="J3" toJunction="J5" end="300" vehsPerHour="259.4310830469148" departLane="free"/>
  <flow id="JF152243" begin="240" fromJunction="J3" toJunction="J7" end="300" vehsPerHour="58.10095022610607" departLane="free"/>
  <flow id="JF152244" begin="240" fromJunction="J3" toJunction="J6" end="300" vehsPerHour="195.62202295927796" departLane="free"/>
  <flow id="JF152245" begin="240" fromJunction="J3" toJunction="J4" end="300" vehsPerHour="218.6683499588718" departLane="free"/>
  <flow id="JF152246" begin="240" fromJunction="J0" toJunction="J5" end="300" vehsPerHour="117.5113713045836" departLane="free"/>
  <flow id="JF152247" begin="240" fromJunction="J0" toJunction="J7" end="300" vehsPerHour="225.82971713542864" departLane="free"/>
  <flow id="JF152248" begin="240" fromJunction="J0" toJunction="J6" end="300" vehsPerHour="126.98258943812189" departLane="free"/>
  <flow id="JF152249" begin="240" fromJunction="J0" toJunction="J4" end="300" vehsPerHour="79.56854324828925" departLane="free"/>
  <flow id="JF152250" begin="240" fromJunction="J5" toJunction="J7" end="300" vehsPerHour="13.482104894227374" departLane="free"/>
  <flow id="JF152251" begin="240" fromJunction="J5" toJunction="J6" end="300" vehsPerHour="7.12835044806721" departLane="free"/>
  <flow id="JF152252" begin="240" fromJunction="J5" toJunction="J4" end="300" vehsPerHour="59.552192593963625" departLane="free"/>
  <flow id="JF152253" begin="240" fromJunction="J7" toJunction="J5" end="300" vehsPerHour="37.176595402832795" departLane="free"/>
  <flow id="JF152254" begin="240" fromJunction="J7" toJunction="J6" end="300" vehsPerHour="4.380721903705276" departLane="free"/>
  <flow id="JF152255" begin="240" fromJunction="J7" toJunction="J4" end="300" vehsPerHour="64.72411818484653" departLane="free"/>
  <flow id="JF152256" begin="240" fromJunction="J6" toJunction="J5" end="300" vehsPerHour="67.1629327547466" departLane="free"/>
  <flow id="JF152257" begin="240" fromJunction="J6" toJunction="J7" end="300" vehsPerHour="17.39804317525813" departLane="free"/>
  <flow id="JF152258" begin="240" fromJunction="J6" toJunction="J4" end="300" vehsPerHour="54.804857569899866" departLane="free"/>
  <flow id="JF152259" begin="240" fromJunction="J4" toJunction="J5" end="300" vehsPerHour="25.020802351249017" departLane="free"/>
  <flow id="JF152260" begin="240" fromJunction="J4" toJunction="J7" end="300" vehsPerHour="2.8638492318812387" departLane="free"/>
  <flow id="JF152261" begin="240" fromJunction="J4" toJunction="J6" end="300" vehsPerHour="4.92248438155124" departLane="free"/>
  <flow id="JF152262" begin="240" fromJunction="J5" toJunction="J3" end="300" vehsPerHour="196.51205073953892" departLane="free"/>
  <flow id="JF152263" begin="240" fromJunction="J5" toJunction="J0" end="300" vehsPerHour="182.04184797630234" departLane="free"/>
  <flow id="JF152264" begin="240" fromJunction="J7" toJunction="J3" end="300" vehsPerHour="167.71388232507385" departLane="free"/>
  <flow id="JF152265" begin="240" fromJunction="J7" toJunction="J0" end="300" vehsPerHour="177.5409544903616" departLane="free"/>
  <flow id="JF152266" begin="240" fromJunction="J6" toJunction="J3" end="300" vehsPerHour="173.22791015704877" departLane="free"/>
  <flow id="JF152267" begin="240" fromJunction="J6" toJunction="J0" end="300" vehsPerHour="173.9112898521728" departLane="free"/>
  <flow id="JF152268" begin="240" fromJunction="J4" toJunction="J3" end="300" vehsPerHour="261.63590536007246" departLane="free"/>
  <flow id="JF152269" begin="240" fromJunction="J4" toJunction="J0" end="300" vehsPerHour="191.79519978943057" departLane="free"/>
  <flow id="JF152270" begin="300" fromJunction="J3" toJunction="J0" end="360" vehsPerHour="26.684384905550953" departLane="free"/>
  <flow id="JF152271" begin="300" fromJunction="J0" toJunction="J3" end="360" vehsPerHour="24.84063625581813" departLane="free"/>
  <flow id="JF152272" begin="300" fromJunction="J3" toJunction="J5" end="360" vehsPerHour="165.2623776575287" departLane="free"/>
  <flow id="JF152273" begin="300" fromJunction="J3" toJunction="J7" end="360" vehsPerHour="133.50546668962835" departLane="free"/>
  <flow id="JF152274" begin="300" fromJunction="J3" toJunction="J6" end="360" vehsPerHour="250.3819449245971" departLane="free"/>
  <flow id="JF152275" begin="300" fromJunction="J3" toJunction="J4" end="360" vehsPerHour="84.09251411580985" departLane="free"/>
  <flow id="JF152276" begin="300" fromJunction="J0" toJunction="J5" end="360" vehsPerHour="215.03894753132073" departLane="free"/>
  <flow id="JF152277" begin="300" fromJunction="J0" toJunction="J7" end="360" vehsPerHour="219.57012725304418" departLane="free"/>
  <flow id="JF152278" begin="300" fromJunction="J0" toJunction="J6" end="360" vehsPerHour="49.26515694711662" departLane="free"/>
  <flow id="JF152279" begin="300" fromJunction="J0" toJunction="J4" end="360" vehsPerHour="37.41919840597695" departLane="free"/>
  <flow id="JF152280" begin="300" fromJunction="J5" toJunction="J7" end="360" vehsPerHour="32.11591187904602" departLane="free"/>
  <flow id="JF152281" begin="300" fromJunction="J5" toJunction="J6" end="360" vehsPerHour="25.363323057337812" departLane="free"/>
  <flow id="JF152282" begin="300" fromJunction="J5" toJunction="J4" end="360" vehsPerHour="63.942907374147985" departLane="free"/>
  <flow id="JF152283" begin="300" fromJunction="J7" toJunction="J5" end="360" vehsPerHour="61.46935745793369" departLane="free"/>
  <flow id="JF152284" begin="300" fromJunction="J7" toJunction="J6" end="360" vehsPerHour="32.86457991816805" departLane="free"/>
  <flow id="JF152285" begin="300" fromJunction="J7" toJunction="J4" end="360" vehsPerHour="13.903939623572565" departLane="free"/>
  <flow id="JF152286" begin="300" fromJunction="J6" toJunction="J5" end="360" vehsPerHour="8.585057281654228" departLane="free"/>
  <flow id="JF152287" begin="300" fromJunction="J6" toJunction="J7" end="360" vehsPerHour="10.725979556110094" departLane="free"/>
  <flow id="JF152288" begin="300" fromJunction="J6" toJunction="J4" end="360" vehsPerHour="56.05274800958137" departLane="free"/>
  <flow id="JF152289" begin="300" fromJunction="J4" toJunction="J5" end="360" vehsPerHour="19.19213039675427" departLane="free"/>
  <flow id="JF152290" begin="300" fromJunction="J4" toJunction="J7" end="360" vehsPerHour="0.3344275691698976" departLane="free"/>
  <flow id="JF152291" begin="300" fromJunction="J4" toJunction="J6" end="360" vehsPerHour="2.3619713005408176" departLane="free"/>
  <flow id="JF152292" begin="300" fromJunction="J5" toJunction="J3" end="360" vehsPerHour="80.30835937265509" departLane="free"/>
  <flow id="JF152293" begin="300" fromJunction="J5" toJunction="J0" end="360" vehsPerHour="208.27504472988227" departLane="free"/>
  <flow id="JF152294" begin="300" fromJunction="J7" toJunction="J3" end="360" vehsPerHour="148.10831785574786" departLane="free"/>
  <flow id="JF152295" begin="300" fromJunction="J7" toJunction="J0" end="360" vehsPerHour="188.99011037562556" departLane="free"/>
  <flow id="JF152296" begin="300" fromJunction="J6" toJunction="J3" end="360" vehsPerHour="166.79113365362045" departLane="free"/>
  <flow id="JF152297" begin="300" fromJunction="J6" toJunction="J0" end="360" vehsPerHour="105.58733229051626" departLane="free"/>
  <flow id="JF152298" begin="300" fromJunction="J4" toJunction="J3" end="360" vehsPerHour="158.7280426660434" departLane="free"/>
  <flow id="JF152299" begin="300" fromJunction="J4" toJunction="J0" end="360" vehsPerHour="94.23664373559939" departLane="free"/>
  <flow id="JF152300" begin="360" fromJunction="J3" toJunction="J0" end="420" vehsPerHour="122.68281964196935" departLane="free"/>
  <flow id="JF152301" begin="360" fromJunction="J0" toJunction="J3" end="420" vehsPerHour="40.37405706502963" departLane="free"/>
  <flow id="JF152302" begin="360" fromJunction="J3" toJunction="J5" end="420" vehsPerHour="192.1886080724031" departLane="free"/>
  <flow id="JF152303" begin="360" fromJunction="J3" toJunction="J7" end="420" vehsPerHour="134.97291495848125" departLane="free"/>
  <flow id="JF152304" begin="360" fromJunction="J3" toJunction="J6" end="420" vehsPerHour="547.643299730839" departLane="free"/>
  <flow id="JF152305" begin="360" fromJunction="J3" toJunction="J4" end="420" vehsPerHour="288.76360152481186" departLane="free"/>
  <flow id="JF152306" begin="360" fromJunction="J0" toJunction="J5" end="420" vehsPerHour="212.16971806129905" departLane="free"/>
  <flow id="JF152307" begin="360" fromJunction="J0" toJunction="J7" end="420" vehsPerHour="152.9885445348788" departLane="free"/>
  <flow id="JF152308" begin="360" fromJunction="J0" toJunction="J6" end="420" vehsPerHour="361.24519372267963" departLane="free"/>
  <flow id="JF152309" begin="360" fromJunction="J0" toJunction="J4" end="420" vehsPerHour="138.38049556994443" departLane="free"/>
  <flow id="JF152310" begin="420" fromJunction="J3" toJunction="J0" end="480" vehsPerHour="47.299138040817525" departLane="free"/>
  <flow id="JF152311" begin="420" fromJunction="J0" toJunction="J3" end="480" vehsPerHour="63.951327327250986" departLane="free"/>
  <flow id="JF152312" begin="420" fromJunction="J3" toJunction="J5" end="480" vehsPerHour="122.91865396363909" departLane="free"/>
  <flow id="JF152313" begin="420" fromJunction="J3" toJunction="J7" end="480" vehsPerHour="192.65014408243252" departLane="free"/>
  <flow id="JF152314" begin="420" fromJunction="J3" toJunction="J6" end="480" vehsPerHour="155.6459152966085" departLane="free"/>
  <flow id="JF152315" begin="420" fromJunction="J3" toJunction="J4" end="480" vehsPerHour="124.18377573756786" departLane="free"/>
  <flow id="JF152316" begin="420" fromJunction="J0" toJunction="J5" end="480" vehsPerHour="137.98710262153867" departLane="free"/>
  <flow id="JF152317" begin="420" fromJunction="J0" toJunction="J7" end="480" vehsPerHour="91.9490321640672" departLane="free"/>
  <flow id="JF152318" begin="420" fromJunction="J0" toJunction="J6" end="480" vehsPerHour="209.18665230129307" departLane="free"/>
  <flow id="JF152319" begin="420" fromJunction="J0" toJunction="J4" end="480" vehsPerHour="258.0508711198737" departLane="free"/>
  <flow id="JF152320" begin="420" fromJunction="J5" toJunction="J7" end="480" vehsPerHour="10.773589849512577" departLane="free"/>
  <flow id="JF152321" begin="420" fromJunction="J5" toJunction="J6" end="480" vehsPerHour="6.466092810291057" departLane="free"/>
  <flow id="JF152322" begin="420" fromJunction="J5" toJunction="J4" end="480" vehsPerHour="50.17103806980293" departLane="free"/>
  <flow id="JF152323" begin="420" fromJunction="J7" toJunction="J5" end="480" vehsPerHour="41.94007430447254" departLane="free"/>
  <flow id="JF152324" begin="420" fromJunction="J7" toJunction="J6" end="480" vehsPerHour="66.68259859104013" departLane="free"/>
  <flow id="JF152325" begin="420" fromJunction="J7" toJunction="J4" end="480" vehsPerHour="61.79210327202802" departLane="free"/>
  <flow id="JF152326" begin="420" fromJunction="J6" toJunction="J5" end="480" vehsPerHour="20.721135008466426" departLane="free"/>
  <flow id="JF152327" begin="420" fromJunction="J6" toJunction="J7" end="480" vehsPerHour="33.748438902233026" departLane="free"/>
  <flow id="JF152328" begin="420" fromJunction="J6" toJunction="J4" end="480" vehsPerHour="65.07225677529314" departLane="free"/>
  <flow id="JF152329" begin="420" fromJunction="J4" toJunction="J5" end="480" vehsPerHour="33.44303801991817" departLane="free"/>
  <flow id="JF152330" begin="420" fromJunction="J4" toJunction="J7" end="480" vehsPerHour="17.889603252015903" departLane="free"/>
  <flow id="JF152331" begin="420" fromJunction="J4" toJunction="J6" end="480" vehsPerHour="11.781926060386384" departLane="free"/>
  <flow id="JF152332" begin="420" fromJunction="J5" toJunction="J3" end="480" vehsPerHour="145.5030926399758" departLane="free"/>
  <flow id="JF152333" begin="420" fromJunction="J5" toJunction="J0" end="480" vehsPerHour="267.8581874358476" departLane="free"/>
  <flow id="JF152334" begin="420" fromJunction="J7" toJunction="J3" end="480" vehsPerHour="164.41601259209625" departLane="free"/>
  <flow id="JF152335" begin="420" fromJunction="J7" toJunction="J0" end="480" vehsPerHour="95.88270464862049" departLane="free"/>
  <flow id="JF152336" begin="420" fromJunction="J6" toJunction="J3" end="480" vehsPerHour="3.5677881479636606" departLane="free"/>
  <flow id="JF152337" begin="420" fromJunction="J6" toJunction="J0" end="480" vehsPerHour="104.79891698323445" departLane="free"/>
  <flow id="JF152338" begin="420" fromJunction="J4" toJunction="J3" end="480" vehsPerHour="194.29654886291107" departLane="free"/>
  <flow id="JF152339" begin="420" fromJunction="J4" toJunction="J0" end="480" vehsPerHour="261.3944564690481" departLane="free"/>
  <flow id="JF152340" begin="480" fromJunction="J3" toJunction="J0" end="540" vehsPerHour="50.35015757954832" departLane="free"/>
  <flow id="JF152341" begin="480" fromJunction="J0" toJunction="J3" end="540" vehsPerHour="19.323200991135206" departLane="free"/>
  <flow id="JF152342" begin="480" fromJunction="J3" toJunction="J5" end="540" vehsPerHour="8.52483402666393" departLane="free"/>
  <flow id="JF152343" begin="480" fromJunction="J3" toJunction="J7" end="540" vehsPerHour="161.6307109818975" departLane="free"/>
  <flow id="JF152344" begin="480" fromJunction="J3" toJunction="J6" end="540" vehsPerHour="198.4611625017498" departLane="free"/>
  <flow id="JF152345" begin="480" fromJunction="J3" toJunction="J4" end="540" vehsPerHour="159.11963078148904" departLane="free"/>
  <flow id="JF152346" begin="480" fromJunction="J0" toJunction="J5" end="540" vehsPerHour="137.09155789718554" departLane="free"/>
  <flow id="JF152347" begin="480" fromJunction="J0" toJunction="J7" end="540" vehsPerHour="143.84261532394237" departLane="free"/>
  <flow id="JF152348" begin="480" fromJunction="J0" toJunction="J6" end="540" vehsPerHour="261.57440221677473" departLane="free"/>
  <flow id="JF152349" begin="480" fromJunction="J0" toJunction="J4" end="540" vehsPerHour="87.40225449055188" departLane="free"/>
  <flow id="JF152350" begin="480" fromJunction="J5" toJunction="J7" end="540" vehsPerHour="11.892996193706733" departLane="free"/>
  <flow id="JF152351" begin="480" fromJunction="J5" toJunction="J6" end="540" vehsPerHour="12.94423519853378" departLane="free"/>
  <flow id="JF152352" begin="480" fromJunction="J5" toJunction="J4" end="540" vehsPerHour="67.72257147513972" departLane="free"/>
  <flow id="JF152353" begin="480" fromJunction="J7" toJunction="J5" end="540" vehsPerHour="66.8316822387571" departLane="free"/>
  <flow id="JF152354" begin="480" fromJunction="J7" toJunction="J6" end="540" vehsPerHour="46.154121360792836" departLane="free"/>
  <flow id="JF152355" begin="480" fromJunction="J7" toJunction="J4" end="540" vehsPerHour="17.8809744748955" departLane="free"/>
  <flow id="JF152356" begin="480" fromJunction="J6" toJunction="J5" end="540" vehsPerHour="44.10485787101021" departLane="free"/>
  <flow id="JF152357" begin="480" fromJunction="J6" toJunction="J7" end="540" vehsPerHour="3.503021136357839" departLane="free"/>
  <flow id="JF152358" begin="480" fromJunction="J6" toJunction="J4" end="540" vehsPerHour="5.955096423167929" departLane="free"/>
  <flow id="JF152359" begin="480" fromJunction="J4" toJunction="J5" end="540" vehsPerHour="4.392588952827798" departLane="free"/>
  <flow id="JF152360" begin="480" fromJunction="J4" toJunction="J7" end="540" vehsPerHour="30.65676443732577" departLane="free"/>
  <flow id="JF152361" begin="480" fromJunction="J4" toJunction="J6" end="540" vehsPerHour="27.885358893385632" departLane="free"/>
  <flow id="JF152362" begin="480" fromJunction="J5" toJunction="J3" end="540" vehsPerHour="133.8797379850535" departLane="free"/>
  <flow id="JF152363" begin="480" fromJunction="J5" toJunction="J0" end="540" vehsPerHour="27.326988829624558" departLane="free"/>
  <flow id="JF152364" begin="480" fromJunction="J7" toJunction="J3" end="540" vehsPerHour="108.27775248267659" departLane="free"/>
  <flow id="JF152365" begin="480" fromJunction="J7" toJunction="J0" end="540" vehsPerHour="130.14280412410008" departLane="free"/>
  <flow id="JF152366" begin="480" fromJunction="J6" toJunction="J3" end="540" vehsPerHour="214.22587695023122" departLane="free"/>
  <flow id="JF152367" begin="480" fromJunction="J6" toJunction="J0" end="540" vehsPerHour="129.61851397555282" departLane="free"/>
  <flow id="JF152368" begin="480" fromJunction="J4" toJunction="J3" end="540" vehsPerHour="230.29027858322834" departLane="free"/>