<?xml version="1.0" encoding="UTF-8"?>
<routes xmlns:xsi="http://www.w3.org/2001/XMLSchema-instance" xsi:noNamespaceSchemaLocation="http://sumo.dlr.de/xsd/routes_file.xsd">
  <flow id="JF144240" begin="0" fromJunction="J3" toJunction="J0" end="60" vehsPerHour="5.364135685925582" departLane="free"/>
  <flow id="JF144241" begin="0" fromJunction="J0" toJunction="J3" end="60" vehsPerHour="41.31549179392507" departLane="free"/>
  <flow id="JF144242" begin="0" fromJunction="J3" toJunction="J5" end="60" vehsPerHour="264.04437517289915" departLane="free"/>
  <flow id="JF144243" begin="0" fromJunction="J3" toJunction="J7" end="60" vehsPerHour="1.2638203841126658" departLane="free"/>
  <flow id="JF144244" begin="0" fromJunction="J3" toJunction="J6" end="60" vehsPerHour="7.367147223140118" departLane="free"/>
  <flow id="JF144245" begin="0" fromJunction="J3" toJunction="J4" end="60" vehsPerHour="5.997584219687165" departLane="free"/>
  <flow id="JF144246" begin="0" fromJunction="J0" toJunction="J5" end="60" vehsPerHour="8.723733155191454" departLane="free"/>
  <flow id="JF144247" begin="0" fromJunction="J0" toJunction="J7" end="60" vehsPerHour="3.4882483008697585" departLane="free"/>
  <flow id="JF144248" begin="0" fromJunction="J0" toJunction="J6" end="60" vehsPerHour="93.69180554052954" departLane="free"/>
  <flow id="JF144249" begin="0" fromJunction="J0" toJunction="J4" end="60" vehsPerHour="250.17381786179897" departLane="free"/>
  <flow id="JF144250" begin="0" fromJunction="J5" toJunction="J7" end="60" vehsPerHour="9.947056059041357" departLane="free"/>
  <flow id="JF144251" begin="0" fromJunction="J5" toJunction="J6" end="60" vehsPerHour="4.910414264050322" departLane="free"/>
  <flow id="JF144252" begin="0" fromJunction="J5" toJunction="J4" end="60" vehsPerHour="67.38446445205153" departLane="free"/>
  <flow id="JF144253" begin="0" fromJunction="J7" toJunction="J5" end="60" vehsPerHour="43.1635564483755" departLane="free"/>
  <flow id="JF144254" begin="0" fromJunction="J7" toJunction="J6" end="60" vehsPerHour="1.2533880711811292" departLane="free"/>
  <flow id="JF144255" begin="0" fromJunction="J7" toJunction="J4" end="60" vehsPerHour="40.5382300369467" departLane="free"/>
  <flow id="JF144256" begin="0" fromJunction="J6" toJunction="J5" end="60" vehsPerHour="53.97199617025662" departLane="free"/>
  <flow id="JF144257" begin="0" fromJunction="J6" toJunction="J7" end="60" vehsPerHour="15.320774223627586" departLane="free"/>
  <flow id="JF144258" begin="0" fromJunction="J6" toJunction="J4" end="60" vehsPerHour="9.393280788532671" departLane="free"/>
  <flow id="JF144259" begin="0" fromJunction="J4" toJunction="J5" end="60" vehsPerHour="17.038425853135053" departLane="free"/>
  <flow id="JF144260" begin="0" fromJunction="J4" toJunction="J7" end="60" vehsPerHour="26.714749482465013" departLane="free"/>
  <flow id="JF144261" begin="0" fromJunction="J4" toJunction="J6" end="60" vehsPerHour="30.51116338012581" departLane="free"/>
  <flow id="JF144262" begin="0" fromJunction="J5" toJunction="J3" end="60" vehsPerHour="12.744938183100922" departLane="free"/>
  <flow id="JF144263" begin="0" fromJunction="J5" toJunction="J0" end="60" vehsPerHour="99.95860246997029" departLane="free"/>
  <flow id="JF144264" begin="0" fromJunction="J7" toJunction="J3" end="60" vehsPerHour="69.99038530253195" departLane="free"/>
  <flow id="JF144265" begin="0" fromJunction="J7" toJunction="J0" end="60" vehsPerHour="266.72493026562375" departLane="free"/>
  <flow id="JF144266" begin="0" fromJunction="J6" toJunction="J3" end="60" vehsPerHour="262.5693660354176" departLane="free"/>
  <flow id="JF144267" begin="0" fromJunction="J6" toJunction="J0" end="60" vehsPerHour="37.78241841580328" departLane="free"/>
  <flow id="JF144268" begin="0" fromJunction="J4" toJunction="J3" end="60" vehsPerHour="242.02765613600877" departLane="free"/>
  <flow id="JF144269" begin="0" fromJunction="J4" toJunction="J0" end="60" vehsPerHour="52.359316590405356" departLane="free"/>
  <flow id="JF144270" begin="60" fromJunction="J3" toJunction="J0" end="120" vehsPerHour="134.4689602082083" departLane="free"/>
  <flow id="JF144271" begin="60" fromJunction="J0" toJunction="J3" end="120" vehsPerHour="2.2290405862266907" departLane="free"/>
  <flow id="JF144272" begin="60" fromJunction="J3" toJunction="J5" end="120" vehsPerHour="57.14733106906041" departLane="free"/>
  <flow id="JF144273" begin="60" fromJunction="J3" toJunction="J7" end="120" vehsPerHour="392.7594509079318" departLane="free"/>
  <flow id="JF144274" begin="60" fromJunction="J3" toJunction="J6" end="120" vehsPerHour="68.85556049043926" departLane="free"/>
  <flow id="JF144275" begin="60" fromJunction="J3" toJunction="J4" end="120" vehsPerHour="414.1407167394184" departLane="free"/>
  <flow id="JF144276" begin="60" fromJunction="J0" toJunction="J5" end="120" vehsPerHour="382.79339859154163" departLane="free"/>
  <flow id="JF144277" begin="60" fromJunction="J0" toJunction="J7" end="120" vehsPerHour="275.63580357170406" departLane="free"/>
  <flow id="JF144278" begin="60" fromJunction="J0" toJunction="J6" end="120" vehsPerHour="84.56235414776114" departLane="free"/>
  <flow id="JF144279" begin="60" fromJunction="J0" toJunction="J4" end="120" vehsPerHour="440.89899794815824" departLane="free"/>
  <flow id="JF144280" begin="120" fromJunction="J3" toJunction="J0" end="180" vehsPerHour="83.75273612999692" departLane="free"/>
  <flow id="JF144281" begin="120" fromJunction="J0" toJunction="J3" end="180" vehsPerHour="39.79542166065974" departLane="free"/>
  <flow id="JF144282" begin="120" fromJunction="J3" toJunction="J5" end="180" vehsPerHour="156.63366973707704" departLane="free"/>
  <flow id="JF144283" begin="120" fromJunction="J3" toJunction="J7" end="180" vehsPerHour="26.53351034329806" departLane="free"/>
  <flow id="JF144284" begin="120" fromJunction="J3" toJunction="J6" end="180" vehsPerHour="108.28295229501282" departLane="free"/>
  <flow id="JF144285" begin="120" fromJunction="J3" toJunction="J4" end="180" vehsPerHour="235.24854353531924" departLane="free"/>
  <flow id="JF144286" begin="120" fromJunction="J0" toJunction="J5" end="180" vehsPerHour="249.97622101091807" departLane="free"/>
  <flow id="JF144287" begin="120" fromJunction="J0" toJunction="J7" end="180" vehsPerHour="62.896573087493636" departLane="free"/>
  <flow id="JF144288" begin="120" fromJunction="J0" toJunction="J6" end="180" vehsPerHour="273.5800522465063" departLane="free"/>
  <flow id="JF144289" begin="120" fromJunction="J0" toJunction="J4" end="180" vehsPerHour="115.32725988318676" departLane="free"/>
  <flow id="JF144290" begin="120" fromJunction="J5" toJunction="J7" end="180" vehsPerHour="20.389605363203746" departLane="free"/>
  <flow id="JF144291" begin="120" fromJunction="J5" toJunction="J6" end="180" vehsPerHour="28.34567517277722" departLane="free"/>
  <flow id="JF144292" begin="120" fromJunction="J5" toJunction="J4" end="180" vehsPerHour="37.55449032775528" departLane="free"/>
  <flow id="JF144293" begin="120" fromJunction="J7" toJunction="J5" end="180" vehsPerHour="30.85893075785385" departLane="free"/>
  <flow id="JF144294" begin="120" fromJunction="J7" toJunction="J6" end="180" vehsPerHour="20.04776903142207" departLane="free"/>
  <flow id="JF144295" begin="120" fromJunction="J7" toJunction="J4" end="180" vehsPerHour="50.62045943352834" departLane="free"/>
  <flow id="JF144296" begin="120" fromJunction="J6" toJunction="J5" end="180" vehsPerHour="25.366051318527436" departLane="free"/>
  <flow id="JF144297" begin="120" fromJunction="J6" toJunction="J7" end="180" vehsPerHour="15.084218170878364" departLane="free"/>
  <flow id="JF144298" begin="120" fromJunction="J6" toJunction="J4" end="180" vehsPerHour="31.445427036454962" departLane="free"/>
  <flow id="JF144299" begin="120" fromJunction="J4" toJunction="J5" end="180" vehsPerHour="17.15417578686064" departLane="free"/>
  <flow id="JF144300" begin="120" fromJunction="J4" toJunction="J7" end="180" vehsPerHour="8.218071936710624" departLane="free"/>
  <flow id="JF144301" begin="120" fromJunction="J4" toJunction="J6" end="180" vehsPerHour="3.8463602302827433" departLane="free"/>
  <flow id="JF144302" begin="120" fromJunction="J5" toJunction="J3" end="180" vehsPerHour="39.350343987763544" departLane="free"/>
  <flow id="JF144303" begin="120" fromJunction="J5" toJunction="J0" end="180" vehsPerHour="236.35806071716993" departLane="free"/>
  <flow id="JF144304" begin="120" fromJunction="J7" toJunction="J3" end="180" vehsPerHour="185.7854280254783" departLane="free"/>
  <flow id="JF144305" begin="120" fromJunction="J7" toJunction="J0" end="180" vehsPerHour="75.64150614396479" departLane="free"/>
  <flow id="JF144306" begin="120" fromJunction="J6" toJunction="J3" end="180" vehsPerHour="12.161232796505441" departLane="free"/>
  <flow id="JF144307" begin="120" fromJunction="J6" toJunction="J0" end="180" vehsPerHour="3.9852109108721145" departLane="free"/>
  <flow id="JF144308" begin="120" fromJunction="J4" toJunction="J3" end="180" vehsPerHour="272.9510207950546" departLane="free"/>
  <flow id="JF144309" begin="120" fromJunction="J4" toJunction="J0" end="180" vehsPerHour="189.954916020021" departLane="free"/>
  <flow id="JF144310" begin="180" fromJunction="J3" toJunction="J0" end="240" vehsPerHour="49.89838226266641" departLane="free"/>
  <flow id="JF144311" begin="180" fromJunction="J0" toJunction="J3" end="240" vehsPerHour="45.076029214377826" departLane="free"/>
  <flow id="JF144312" begin="180" fromJunction="J3" toJunction="J5" end="240" vehsPerHour="227.63005404155393" departLane="free"/>
  <flow id="JF144313" begin="180" fromJunction="J3" toJunction="J7" end="240" vehsPerHour="50.92334333355115" departLane="free"/>
  <flow id="JF144314" begin="180" fromJunction="J3" toJunction="J6" end="240" vehsPerHour="51.6159979242143" departLane="free"/>
  <flow id="JF144315" begin="180" fromJunction="J3" toJunction="J4" end="240" vehsPerHour="257.99536573026694" departLane="free"/>
  <flow id="JF144316" begin="180" fromJunction="J0" toJunction="J5" end="240" vehsPerHour="72.05857266021502" departLane="free"/>
  <flow id="JF144317" begin="180" fromJunction="J0" toJunction="J7" end="240" vehsPerHour="142.64544408192958" departLane="free"/>
  <flow id="JF144318" begin="180" fromJunction="J0" toJunction="J6" end="240" vehsPerHour="162.30906177722056" departLane="free"/>
  <flow id="JF144319" begin="180" fromJunction="J0" toJunction="J4" end="240" vehsPerHour="114.36075997190035" departLane="free"/>
  <flow id="JF144320" begin="180" fromJunction="J5" toJunction="J7" end="240" vehsPerHour="24.31015077849759" departLane="free"/>
  <flow id="JF144321" begin="180" fromJunction="J5" toJunction="J6" end="240" vehsPerHour="10.264788161453659" departLane="free"/>
  <flow id="JF144322" begin="180" fromJunction="J5" toJunction="J4" end="240" vehsPerHour="49.673525343333395" departLane="free"/>
  <flow id="JF144323" begin="180" fromJunction="J7" toJunction="J5" end="240" vehsPerHour="45.938701854018724" departLane="free"/>
  <flow id="JF144324" begin="180" fromJunction="J7" toJunction="J6" end="240" vehsPerHour="31.074365141522776" departLane="free"/>
  <flow id="JF144325" begin="180" fromJunction="J7" toJunction="J4" end="240" vehsPerHour="26.505468009214727" departLane="free"/>
  <flow id="JF144326" begin="180" fromJunction="J6" toJunction="J5" end="240" vehsPerHour="66.32297767644644" departLane="free"/>
  <flow id="JF144327" begin="180" fromJunction="J6" toJunction="J7" end="240" vehsPerHour="33.24193473179545" departLane="free"/>
  <flow id="JF144328" begin="180" fromJunction="J6" toJunction="J4" end="240" vehsPerHour="19.502181139322836" departLane="free"/>
  <flow id="JF144329" begin="180" fromJunction="J4" toJunction="J5" end="240" vehsPerHour="6.767250384756753" departLane="free"/>
  <flow id="JF144330" begin="180" fromJunction="J4" toJunction="J7" end="240" vehsPerHour="12.360996330370714" departLane="free"/>
  <flow id="JF144331" begin="180" fromJunction="J4" toJunction="J6" end="240" vehsPerHour="19.397397428306416" departLane="free"/>
  <flow id="JF144332" begin="180" fromJunction="J5" toJunction="J3" end="240" vehsPerHour="233.6321829242458" departLane="free"/>
  <flow id="JF144333" begin="180" fromJunction="J5" toJunction="J0" end="240" vehsPerHour="239.33532338265445" departLane="free"/>
  <flow id="JF144334" begin="180" fromJunction="J7" toJunction="J3" end="240" vehsPerHour="161.36949261712888" departLane="free"/>
  <flow id="JF144335" begin="180" fromJunction="J7" toJunction="J0" end="240" vehsPerHour="164.904097368516" departLane="free"/>
  <flow id="JF144336" begin="180" fromJunction="J6" toJunction="J3" end="240" vehsPerHour="33.989680152385226" departLane="free"/>
  <flow id="JF144337" begin="180" fromJunction="J6" toJunction="J0" end="240" vehsPerHour="109.49405065430301" departLane="free"/>
  <flow id="JF144338" begin="180" fromJunction="J4" toJunction="J3" end="240" vehsPerHour="267.97160436783724" departLane="free"/>
  <flow id="JF144339" begin="180" fromJunction="J4" toJunction="J0" end="240" vehsPerHour="68.38806514174699" departLane="free"/>
  <flow id="JF144340" begin="240" fromJunction="J3" toJunction="J0" end="300" vehsPerHour="110.8911586496995" departLane="free"/>
  <flow id="JF144341" begin="240" fromJunction="J0" toJunction="J3" end="300" vehsPerHour="3.2094429745716853" departLane="free"/>
  <flow id="JF144342" begin="240" fromJunction="J3" toJunction="J5" end="300" vehsPerHour="9.983664813660747" departLane="free"/>
  <flow id="JF144343" begin="240" fromJunction="J3" toJunction="J7" end="300" vehsPerHour="183.65523092974928" departLane="free"/>
  <flow id="JF144344" begin="240" fromJunction="J3" toJunction="J6" end="300" vehsPerHour="264.52133869068547" departLane="free"/>
  <flow id="JF144345" begin="240" fromJunction="J3" toJunction="J4" end="300" vehsPerHour="229.95661996102004" departLane="free"/>
  <flow id="JF144346" begin="240" fromJunction="J0" toJunction="J5" end="300" vehsPerHour="48.43791527842881" departLane="free"/>
  <flow id="JF144347" begin="240" fromJunction="J0" toJunction="J7" end="300" vehsPerHour="214.8231312617331" departLane="free"/>
  <flow id="JF144348" begin="240" fromJunction="J0" toJunction="J6" end="300" vehsPerHour="59.96177160740374" departLane="free"/>
  <flow id="JF144349" begin="240" fromJunction="J0" toJunction="J4" end="300" vehsPerHour="39.76517165032426" departLane="free"/>
  <flow id="JF144350" begin="240" fromJunction="J5" toJunction="J7" end="300" vehsPerHour="9.20000723059446" departLane="free"/>
  <flow id="JF144351" begin="240" fromJunction="J5" toJunction="J6" end="300" vehsPerHour="1.689231073751378" departLane="free"/>
  <flow id="JF144352" begin="240" fromJunction="J5" toJunction="J4" end="300" vehsPerHour="60.72181586254206" departLane="free"/>
  <flow id="JF144353" begin="240" fromJunction="J7" toJunction="J5" end="300" vehsPerHour="6.658757267614145" departLane="free"/>
  <flow id="JF144354" begin="240" fromJunction="J7" toJunction="J6" end="300" vehsPerHour="63.49304008889477" departLane="free"/>
  <flow id="JF144355" begin="240" fromJunction="J7" toJunction="J4" end="300" vehsPerHour="40.04686846125757" departLane="free"/>
  <flow id="JF144356" begin="240" fromJunction="J6" toJunction="J5" end="300" vehsPerHour="45.90057570094863" departLane="free"/>
  <flow id="JF144357" begin="240" fromJunction="J6" toJunction="J7" end="300" vehsPerHour="24.491385106173897" departLane="free"/>
  <flow id="JF144358" begin="240" fromJunction="J6" toJunction="J4" end="300" vehsPerHour="14.878559375792715" departLane="free"/>
  <flow id="JF144359" begin="240" fromJunction="J4" toJunction="J5" end="300" vehsPerHour="2.0065632842726155" departLane="free"/>
  <flow id="JF144360" begin="240" fromJunction="J4" toJunction="J7" end="300" vehsPerHour="19.403324158180755" departLane="free"/>
  <flow id="JF144361" begin="240" fromJunction="J4" toJunction="J6" end="300" vehsPerHour="4.810253277535172" departLane="free"/>
  <flow id="JF144362" begin="240" fromJunction="J5" toJunction="J3" end="300" vehsPerHour="267.499973315931" departLane="free"/>
  <flow id="JF144363" begin="240" fromJunction="J5" toJunction="J0" end="300" vehsPerHour="124.61618719851761" departLane="free"/>
  <flow id="JF144364" begin="240" fromJunction="J7" toJunction="J3" end="300" vehsPerHour="249.76453864221963" departLane="free"/>
  <flow id="JF144365" begin="240" fromJunction="J7" toJunction="J0" end="300" vehsPerHour="272.8436199540248" departLane="free"/>
  <flow id="JF144366" begin="240" fromJunction="J6" toJunction="J3" end="300" vehsPerHour="50.76833636108678" departLane="free"/>
  <flow id="JF144367" begin="240" fromJunction="J6" toJunction="J0" end="300" vehsPerHour="134.1532356904954" departLane="free"/>
  <flow id="JF144368" begin="240" fromJunction="J4" toJunction="J3" end="300" vehsPerHour="227.55874099973326" departLane="free"/>
  <flow id="JF144369" begin="240" fromJunction="J4" toJunction="J0" end="300" vehsPerHour="154.5045564764266" departLane="free"/>
  <flow id="JF144370" begin="300" fromJunction="J3" toJunction="J0" end="360" vehsPerHour="100.70646917734608" departLane="free"/>
  <flow id="JF144371" begin="300" fromJunction="J0" toJunction="J3" end="360" vehsPerHour="57.34955816640046" departLane="free"/>
  <flow id="JF144372" begin="300" fromJunction="J3" toJunction="J5" end="360" vehsPerHour="205.73077466856256" departLane="free"/>
  <flow id="JF144373" begin="300" fromJunction="J3" toJunction="J7" end="360" vehsPerHour="16.58525379096752" departLane="free"/>
  <flow id="JF144374" begin="300" fromJunction="J3" toJunction="J6" end="360" vehsPerHour="62.04754640817969" departLane="free"/>
  <flow id="JF144375" begin="300" fromJunction="J3" toJunction="J4" end="360" vehsPerHour="196.3719346269266" departLane="free"/>
  <flow id="JF144376" begin="300" fromJunction="J0" toJunction="J5" end="360" vehsPerHour="80.78218275955001" departLane="free"/>
  <flow id="JF144377" begin="300" fromJunction="J0" toJunction="J7" end="360" vehsPerHour="146.0712996709068" departLane="free"/>
  <flow id="JF144378" begin="300" fromJunction="J0" toJunction="J6" end="360" vehsPerHour="63.69611792523708" departLane="free"/>
  <flow id="JF144379" begin="300" fromJunction="J0" toJunction="J4" end="360" vehsPerHour="180.89686708709078" departLane="free"/>
  <flow id="JF144380" begin="300" fromJunction="J5" toJunction="J7" end="360" vehsPerHour="18.934773471988414" departLane="free"/>
  <flow id="JF144381" begin="300" fromJunction="J5" toJunction="J6" end="360" vehsPerHour="33.23571889396966" departLane="free"/>
  <flow id="JF144382" begin="300" fromJunction="J5" toJunction="J4" end="360" vehsPerHour="55.97964760546946" departLane="free"/>
  <flow id="JF144383" begin="300" fromJunction="J7" toJunction="J5" end="360" vehsPerHour="8.200642675361946" departLane="free"/>
  <flow id="JF144384" begin="300" fromJunction="J7" toJunction="J6" end="360" vehsPerHour="37.37216682236729" departLane="free"/>
  <flow id="JF144385" begin="300" fromJunction="J7" toJunction="J4" end="360" vehsPerHour="2.2042635465490004" departLane="free"/>
  <flow id="JF144386" begin="300" fromJunction="J6" toJunction="J5" end="360" vehsPerHour="8.01610019999045" departLane="free"/>
  <flow id="JF144387" begin="300" fromJunction="J6" toJunction="J7" end="360" vehsPerHour="24.007347578177413" departLane="free"/>
  <flow id="JF144388" begin="300" fromJunction="J6" toJunction="J4" end="360" vehsPerHour="16.02240895368401" departLane="free"/>
  <flow id="JF144389" begin="300" fromJunction="J4" toJunction="J5" end="360" vehsPerHour="16.415927314386106" departLane="free"/>
  <flow id="JF144390" begin="300" fromJunction="J4" toJunction="J7" end="360" vehsPerHour="12.167886005943434" departLane="free"/>
  <flow id="JF144391" begin="300" fromJunction="J4" toJunction="J6" end="360" vehsPerHour="24.577097488561392" departLane="free"/>
  <flow id="JF144392" begin="300" fromJunction="J5" toJunction="J3" end="360" vehsPerHour="75.20098738852002" departLane="free"/>
  <flow id="JF144393" begin="300" fromJunction="J5" toJunction="J0" end="360" vehsPerHour="13.558620154022613" departLane="free"/>
  <flow id="JF144394" begin="300" fromJunction="J7" toJunction="J3" end="360" vehsPerHour="28.972017911175435" departLane="free"/>
  <flow id="JF144395" begin="300" fromJunction="J7" toJunction="J0" end="360" vehsPerHour="212.33632220368233" departLane="free"/>
  <flow id="JF144396" begin="300" fromJunction="J6" toJunction="J3" end="360" vehsPerHour="36.310999904770924" departLane="free"/>
  <flow id="JF144397" begin="300" fromJunction="J6" toJunction="J0" end="360" vehsPerHour="91.90043690462397" departLane="free"/>
  <flow id="JF144398" begin="300" fromJunction="J4" toJunction="J3" end="360" vehsPerHour="192.3832520150279" departLane="free"/>
  <flow id="JF144399" begin="300" fromJunction="J4" toJunction="J0" end="360" vehsPerHour="239.78092025356375" departLane="free"/>
  <flow id="JF144400" begin="360" fromJunction="J3" toJunction="J0" end="420" vehsPerHour="93.02198493274093" departLane="free"/>
  <flow id="JF144401" begin="360" fromJunction="J0" toJunction="J3" end="420" vehsPerHour="44.058761285155576" departLane="free"/>
  <flow id="JF144402" begin="360" fromJunction="J3" toJunction="J5" end="420" vehsPerHour="389.40096938760394" departLane="free"/>
  <flow id="JF144403" begin="360" fromJunction="J3" toJunction="J7" end="420" vehsPerHour="410.47792667602346" departLane="free"/>
  <flow id="JF144404" begin="360" fromJunction="J3" toJunction="J6" end="420" vehsPerHour="442.6382431091278" departLane="free"/>
  <flow id="JF144405" begin="360" fromJunction="J3" toJunction="J4" end="420" vehsPerHour="136.19017433673568" departLane="free"/>
  <flow id="JF144406" begin="360" fromJunction="J0" toJunction="J5" end="420" vehsPerHour="397.13618351979284" departLane="free"/>
  <flow id="JF144407" begin="360" fromJunction="J0" toJunction="J7" end="420" vehsPerHour="387.2917239450174" departLane="free"/>
  <flow id="JF144408" begin="360" fromJunction="J0" toJunction="J6" end="420" vehsPerHour="374.3836033071741" departLane="free"/>
  <flow id="JF144409" begin="360" fromJunction="J0" toJunction="J4" end="420" vehsPerHour="182.91729038966056" departLane="free"/>
  <flow id="JF144410" begin="420" fromJunction="J3" toJunction="J0" end="480" vehsPerHour="90.82003969721863" departLane="free"/>
  <flow id="JF144411" begin="420" fromJunction="J0" toJunction="J3" end="480" vehsPerHour="57.04782861625433" departLane="free"/>
  <flow id="JF144412" begin="420" fromJunction="J3" toJunction="J5" end="480" vehsPerHour="3.103517604386734" departLane="free"/>
  <flow id="JF144413" begin="420" fromJunction="J3" toJunction="J7" end="480" vehsPerHour="251.7372099952771" departLane="free"/>
  <flow id="JF144414" begin="420" fromJunction="J3" toJunction="J6" end="480" vehsPerHour="231.6617986550035" departLane="free"/>
  <flow id="JF144415" begin="420" fromJunction="J3" toJunction="J4" end="480" vehsPerHour="88.09792696382024" departLane="free"/>
  <flow id="JF144416" begin="420" fromJunction="J0" toJunction="J5" end="480" vehsPerHour="143.09299679880638" departLane="free"/>
  <flow id="JF144417" begin="420" fromJunction="J0" toJunction="J7" end="480" vehsPerHour="51.9656103586761" departLane="free"/>
  <flow id="JF144418" begin="420" fromJunction="J0" toJunction="J6" end="480" vehsPerHour="17.45211745499058" departLane="free"/>
  <flow id="JF144419" begin="420" fromJunction="J0" toJunction="J4" end="480" vehsPerHour="229.40945553113045" departLane="free"/>
  <flow id="JF144420" begin="420" fromJunction="J5" toJunction="J7" end="480" vehsPerHour="22.026597735280358" departLane="free"/>
  <flow id="JF144421" begin="420" fromJunction="J5" toJunction="J6" end="480" vehsPerHour="0.35056022769596806" departLane="free"/>
  <flow id="JF144422" begin="420" fromJunction="J5" toJunction="J4" end="480" vehsPerHour="31.9567080367488" departLane="free"/>
  <flow id="JF144423" begin="420" fromJunction="J7" toJunction="J5" end="480" vehsPerHour="53.25998979202198" departLane="free"/>
  <flow id="JF144424" begin="420" fromJunction="J7" toJunction="J6" end="480" vehsPerHour="4.104803050610323" departLane="free"/>
  <flow id="JF144425" begin="420" fromJunction="J7" toJunction="J4" end="480" vehsPerHour="36.41530382619305" departLane="free"/>
  <flow id="JF144426" begin="420" fromJunction="J6" toJunction="J5" end="480" vehsPerHour="27.395225133416712" departLane="free"/>
  <flow id="JF144427" begin="420" fromJunction="J6" toJunction="J7" end="480" vehsPerHour="27.735018559443425" departLane="free"/>
  <flow id="JF144428" begin="420" fromJunction="J6" toJunction="J4" end="480" vehsPerHour="38.24225613575826" departLane="free"/>
  <flow id="JF144429" begin="420" fromJunction="J4" toJunction="J5" end="480" vehsPerHour="6.2265736889133425" departLane="free"/>
  <flow id="JF144430" begin="420" fromJunction="J4" toJunction="J7" end="480" vehsPerHour="15.148897580436149" departLane="free"/>
  <flow id="JF144431" begin="420" fromJunction="J4" toJunction="J6" end="480" vehsPerHour="3.020272532542777" departLane="free"/>
  <flow id="JF144432" begin="420" fromJunction="J5" toJunction="J3" end="480" vehsPerHour="122.9839325142069" departLane="free"/>
  <flow id="JF144433" begin="420" fromJunction="J5" toJunction="J0" end="480" vehsPerHour="90.3873403002322" departLane="free"/>
  <flow id="JF144434" begin="420" fromJunction="J7" toJunction="J3" end="480" vehsPerHour="112.53629792017672" departLane="free"/>
  <flow id="JF144435" begin="420" fromJunction="J7" toJunction="J0" end="480" vehsPerHour="273.00055544779167" departLane="free"/>
  <flow id="JF144436" begin="420" fromJunction="J6" toJunction="J3" end="480" vehsPerHour="193.7128661433951" departLane="free"/>
  <flow id="JF144437" begin="420" fromJunction="J6" toJunction="J0" end="480" vehsPerHour="54.965091145181496" departLane="free"/>
  <flow id="JF144438" begin="420" fromJunction="J4" toJunction="J3" end="480" vehsPerHour="165.6915988480737" departLane="free"/>
  <flow id="JF144439" begin="420" fromJunction="J4" toJunction="J0" end="480" vehsPerHour="16.64275525779917" departLane="free"/>
  <flow id="JF144440" begin="480" fromJunction="J3" toJunction="J0" end="540" vehsPerHour="21.719236050925243" departLane="free"/>
  <flow id="JF144441" begin="480" fromJunction="J0" toJunction="J3" end="540" vehsPerHour="11.486545685554274" departLane="free"/>
  <flow id="JF144442" begin="480" fromJunction="J3" toJunction="J5" end="540" vehsPerHour="233.1352470717275" departLane="free"/>
  <flow id="JF144443" begin="480" fromJunction="J3" toJunction="J7" end="540" vehsPerHour="35.683515626428814" departLane="free"/>
  <flow id="JF144444" begin="480" fromJunction="J3" toJunction="J6" end="540" vehsPerHour="119.11089867077862" departLane="free"/>
  <flow id="JF144445" begin="480" fromJunction="J3" toJunction="J4" end="540" vehsPerHour="211.17788622542542" departLane="free"/>
  <flow id="JF144446" begin="480" fromJunction="J0" toJunction="J5" end="540" vehsPerHour="118.20333278057583" departLane="free"/>
  <flow id="JF144447" begin="480" fromJunction="J0" toJunction="J7" end="540" vehsPerHour="155.3493058766512" departLane="free"/>
  <flow id="JF144448" begin="480" fromJunction="J0" toJunction="J6" end="540" vehsPerHour="118.69795380770437" departLane="free"/>
  <flow id="JF144449" begin="480" fromJunction="J0" toJunction="J4" end="540" vehsPerHour="150.16821408967377" departLane="free"/>
  <flow id="JF144450" begin="480" fromJunction="J5" toJunction="J7" end="540" vehsPerHour="24.355805047495988" departLane="free"/>
  <flow id="JF144451" begin="480" fromJunction="J5" toJunction="J6" end="540" vehsPerHour="29.41259025290305" departLane="free"/>
  <flow id="JF144452" begin="480" fromJunction="J5" toJunction="J4" end="540" vehsPerHour="33.02410851667158" departLane="free"/>
  <flow id="JF144453" begin="480" fromJunction="J7" toJunction="J5" end="540" vehsPerHour="26.42621665350407" departLane="free"/>
  <flow id="JF144454" begin="480" fromJunction="J7" toJunction="J6" end="540" vehsPerHour="59.30982114454604" departLane="free"/>
  <flow id="JF144455" begin="480" fromJunction="J7" toJunction="J4" end="540" vehsPerHour="5.850625597465254" departLane="free"/>
  <flow id="JF144456" begin="480" fromJunction="J6" toJunction="J5" end="540" vehsPerHour="11.656084916457306" departLane="free"/>
  <flow id="JF144457" begin="480" fromJunction="J6" toJunction="J7" end="540" vehsPerHour="9.038312089528521" departLane="free"/>
  <flow id="JF144458" begin="480" fromJunction="J6" toJunction="J4" end="540" vehsPerHour="5.724756781464396" departLane="free"/>
  <flow id="JF144459" begin="480" fromJunction="J4" toJunction="J5" end="540" vehsPerHour="13.064639915478327" departLane="free"/>
  <flow id="JF144460" begin="480" fromJunction="J4" toJunction="J7" end="540" vehsPerHour="9.016124694443294" departLane="free"/>
  <flow id="JF144461" begin="480" fromJunction="J4" toJunction="J6" end="540" vehsPerHour="26.63702606686903" departLane="free"/>
  <flow id="JF144462" begin="480" fromJunction="J5" toJunction="J3" end="540" vehsPerHour="23.013715111575987" departLane="free"/>
  <flow id="JF144463" begin="480" fromJunction="J5" toJunction="J0" end="540" vehsPerHour="154.46294177762246" departLane="free"/>
  <flow id="JF144464" begin="480" fromJunction="J7" toJunction="J3" end="540" vehsPerHour="223.02299068781636" departLane="free"/>
  <flow id="JF144465" begin="480" fromJunction="J7" toJunction="J0" end="540" vehsPerHour="182.5192623320109" departLane="free"/>
  <flow id="JF144466" begin="480" fromJunction="J6" toJunction="J3" end="540" vehsPerHour="201.72151918604735" departLane="free"/>
  <flow id="JF144467" begin="480" fromJunction="J6" toJunction="J0" end="540" vehsPerHour="211.02449520643944" departLane="free"/>
  <flow id="JF144468" begin="480" fromJunction="J4" toJunction="J3" end="540" vehsPerHour="218.39249695977867" departLane="free"/>