<?xml version="1.0" encoding="UTF-8"?>
<routes xmlns:xsi="http://www.w3.org/2001/XMLSchema-instance" xsi:noNamespaceSchemaLocation="http://sumo.dlr.de/xsd/routes_file.xsd">
  <flow id="JF140320" begin="0" fromJunction="J3" toJunction="J0" end="60" vehsPerHour="48.310925483112555" departLane="free"/>
  <flow id="JF140321" begin="0" fromJunction="J0" toJunction="J3" end="60" vehsPerHour="1.1597683585994296" departLane="free"/>
  <flow id="JF140322" begin="0" fromJunction="J3" toJunction="J5" end="60" vehsPerHour="179.13629303639865" departLane="free"/>
  <flow id="JF140323" begin="0" fromJunction="J3" toJunction="J7" end="60" vehsPerHour="79.61139342682675" departLane="free"/>
  <flow id="JF140324" begin="0" fromJunction="J3" toJunction="J6" end="60" vehsPerHour="253.90847190181344" departLane="free"/>
  <flow id="JF140325" begin="0" fromJunction="J3" toJunction="J4" end="60" vehsPerHour="146.70107670160343" departLane="free"/>
  <flow id="JF140326" begin="0" fromJunction="J0" toJunction="J5" end="60" vehsPerHour="268.51718581005514" departLane="free"/>
  <flow id="JF140327" begin="0" fromJunction="J0" toJunction="J7" end="60" vehsPerHour="127.99552531708625" departLane="free"/>
  <flow id="JF140328" begin="0" fromJunction="J0" toJunction="J6" end="60" vehsPerHour="123.71862795169405" departLane="free"/>
  <flow id="JF140329" begin="0" fromJunction="J0" toJunction="J4" end="60" vehsPerHour="186.33148272476384" departLane="free"/>
  <flow id="JF140330" begin="0" fromJunction="J5" toJunction="J7" end="60" vehsPerHour="5.665153573671333" departLane="free"/>
  <flow id="JF140331" begin="0" fromJunction="J5" toJunction="J6" end="60" vehsPerHour="16.51645621293547" departLane="free"/>
  <flow id="JF140332" begin="0" fromJunction="J5" toJunction="J4" end="60" vehsPerHour="7.572098276863412" departLane="free"/>
  <flow id="JF140333" begin="0" fromJunction="J7" toJunction="J5" end="60" vehsPerHour="29.096030214780914" departLane="free"/>
  <flow id="JF140334" begin="0" fromJunction="J7" toJunction="J6" end="60" vehsPerHour="39.33461613916363" departLane="free"/>
  <flow id="JF140335" begin="0" fromJunction="J7" toJunction="J4" end="60" vehsPerHour="26.06340138327342" departLane="free"/>
  <flow id="JF140336" begin="0" fromJunction="J6" toJunction="J5" end="60" vehsPerHour="34.16763002913091" departLane="free"/>
  <flow id="JF140337" begin="0" fromJunction="J6" toJunction="J7" end="60" vehsPerHour="6.4361839171573365" departLane="free"/>
  <flow id="JF140338" begin="0" fromJunction="J6" toJunction="J4" end="60" vehsPerHour="41.9925054340432" departLane="free"/>
  <flow id="JF140339" begin="0" fromJunction="J4" toJunction="J5" end="60" vehsPerHour="21.097971767030554" departLane="free"/>
  <flow id="JF140340" begin="0" fromJunction="J4" toJunction="J7" end="60" vehsPerHour="4.462301093864339" departLane="free"/>
  <flow id="JF140341" begin="0" fromJunction="J4" toJunction="J6" end="60" vehsPerHour="8.144360953403536" departLane="free"/>
  <flow id="JF140342" begin="0" fromJunction="J5" toJunction="J3" end="60" vehsPerHour="216.4074334745704" departLane="free"/>
  <flow id="JF140343" begin="0" fromJunction="J5" toJunction="J0" end="60" vehsPerHour="271.63246659880656" departLane="free"/>
  <flow id="JF140344" begin="0" fromJunction="J7" toJunction="J3" end="60" vehsPerHour="105.1688527046699" departLane="free"/>
  <flow id="JF140345" begin="0" fromJunction="J7" toJunction="J0" end="60" vehsPerHour="133.58334811028632" departLane="free"/>
  <flow id="JF140346" begin="0" fromJunction="J6" toJunction="J3" end="60" vehsPerHour="64.75906377566162" departLane="free"/>
  <flow id="JF140347" begin="0" fromJunction="J6" toJunction="J0" end="60" vehsPerHour="116.55144396045755" departLane="free"/>
  <flow id="JF140348" begin="0" fromJunction="J4" toJunction="J3" end="60" vehsPerHour="242.10055382360292" departLane="free"/>
  <flow id="JF140349" begin="0" fromJunction="J4" toJunction="J0" end="60" vehsPerHour="21.889991998823927" departLane="free"/>
  <flow id="JF140350" begin="60" fromJunction="J3" toJunction="J0" end="120" vehsPerHour="42.40099599960823" departLane="free"/>
  <flow id="JF140351" begin="60" fromJunction="J0" toJunction="J3" end="120" vehsPerHour="61.363680922692346" departLane="free"/>
  <flow id="JF140352" begin="60" fromJunction="J3" toJunction="J5" end="120" vehsPerHour="105.4337377618169" departLane="free"/>
  <flow id="JF140353" begin="60" fromJunction="J3" toJunction="J7" end="120" vehsPerHour="261.9277809522013" departLane="free"/>
  <flow id="JF140354" begin="60" fromJunction="J3" toJunction="J6" end="120" vehsPerHour="23.029904919072372" departLane="free"/>
  <flow id="JF140355" begin="60" fromJunction="J3" toJunction="J4" end="120" vehsPerHour="195.14885252177015" departLane="free"/>
  <flow id="JF140356" begin="60" fromJunction="J0" toJunction="J5" end="120" vehsPerHour="136.75770624350955" departLane="free"/>
  <flow id="JF140357" begin="60" fromJunction="J0" toJunction="J7" end="120" vehsPerHour="197.96677282972007" departLane="free"/>
  <flow id="JF140358" begin="60" fromJunction="J0" toJunction="J6" end="120" vehsPerHour="11.242088227398689" departLane="free"/>
  <flow id="JF140359" begin="60" fromJunction="J0" toJunction="J4" end="120" vehsPerHour="199.43177216178572" departLane="free"/>
  <flow id="JF140360" begin="60" fromJunction="J5" toJunction="J7" end="120" vehsPerHour="24.146610302049808" departLane="free"/>
  <flow id="JF140361" begin="60" fromJunction="J5" toJunction="J6" end="120" vehsPerHour="11.72822636384804" departLane="free"/>
  <flow id="JF140362" begin="60" fromJunction="J5" toJunction="J4" end="120" vehsPerHour="14.915065972503777" departLane="free"/>
  <flow id="JF140363" begin="60" fromJunction="J7" toJunction="J5" end="120" vehsPerHour="28.7705731067856" departLane="free"/>
  <flow id="JF140364" begin="60" fromJunction="J7" toJunction="J6" end="120" vehsPerHour="3.6924502787738778" departLane="free"/>
  <flow id="JF140365" begin="60" fromJunction="J7" toJunction="J4" end="120" vehsPerHour="30.403744964911116" departLane="free"/>
  <flow id="JF140366" begin="60" fromJunction="J6" toJunction="J5" end="120" vehsPerHour="13.989345433426639" departLane="free"/>
  <flow id="JF140367" begin="60" fromJunction="J6" toJunction="J7" end="120" vehsPerHour="6.268184431093121" departLane="free"/>
  <flow id="JF140368" begin="60" fromJunction="J6" toJunction="J4" end="120" vehsPerHour="12.860785965757126" departLane="free"/>
  <flow id="JF140369" begin="60" fromJunction="J4" toJunction="J5" end="120" vehsPerHour="16.11362168199033" departLane="free"/>
  <flow id="JF140370" begin="60" fromJunction="J4" toJunction="J7" end="120" vehsPerHour="32.54052465475832" departLane="free"/>
  <flow id="JF140371" begin="60" fromJunction="J4" toJunction="J6" end="120" vehsPerHour="28.623315862825862" departLane="free"/>
  <flow id="JF140372" begin="60" fromJunction="J5" toJunction="J3" end="120" vehsPerHour="160.14320766718083" departLane="free"/>
  <flow id="JF140373" begin="60" fromJunction="J5" toJunction="J0" end="120" vehsPerHour="274.2373793214066" departLane="free"/>
  <flow id="JF140374" begin="60" fromJunction="J7" toJunction="J3" end="120" vehsPerHour="201.26362932022647" departLane="free"/>
  <flow id="JF140375" begin="60" fromJunction="J7" toJunction="J0" end="120" vehsPerHour="53.89346600749381" departLane="free"/>
  <flow id="JF140376" begin="60" fromJunction="J6" toJunction="J3" end="120" vehsPerHour="50.920676925614664" departLane="free"/>
  <flow id="JF140377" begin="60" fromJunction="J6" toJunction="J0" end="120" vehsPerHour="136.2018576757877" departLane="free"/>
  <flow id="JF140378" begin="60" fromJunction="J4" toJunction="J3" end="120" vehsPerHour="219.34348400899196" departLane="free"/>
  <flow id="JF140379" begin="60" fromJunction="J4" toJunction="J0" end="120" vehsPerHour="46.019481096017984" departLane="free"/>
  <flow id="JF140380" begin="120" fromJunction="J3" toJunction="J0" end="180" vehsPerHour="107.66192151585035" departLane="free"/>
  <flow id="JF140381" begin="120" fromJunction="J0" toJunction="J3" end="180" vehsPerHour="33.54360108831828" departLane="free"/>
  <flow id="JF140382" begin="120" fromJunction="J3" toJunction="J5" end="180" vehsPerHour="79.984151163595" departLane="free"/>
  <flow id="JF140383" begin="120" fromJunction="J3" toJunction="J7" end="180" vehsPerHour="208.398817826482" departLane="free"/>
  <flow id="JF140384" begin="120" fromJunction="J3" toJunction="J6" end="180" vehsPerHour="54.86811989775467" departLane="free"/>
  <flow id="JF140385" begin="120" fromJunction="J3" toJunction="J4" end="180" vehsPerHour="106.95242747407438" departLane="free"/>
  <flow id="JF140386" begin="120" fromJunction="J0" toJunction="J5" end="180" vehsPerHour="21.639086909703984" departLane="free"/>
  <flow id="JF140387" begin="120" fromJunction="J0" toJunction="J7" end="180" vehsPerHour="47.57096942282035" departLane="free"/>
  <flow id="JF140388" begin="120" fromJunction="J0" toJunction="J6" end="180" vehsPerHour="138.73097934020294" departLane="free"/>
  <flow id="JF140389" begin="120" fromJunction="J0" toJunction="J4" end="180" vehsPerHour="137.55871758624312" departLane="free"/>
  <flow id="JF140390" begin="120" fromJunction="J5" toJunction="J7" end="180" vehsPerHour="21.856135122586323" departLane="free"/>
  <flow id="JF140391" begin="120" fromJunction="J5" toJunction="J6" end="180" vehsPerHour="1.6778387128065968" departLane="free"/>
  <flow id="JF140392" begin="120" fromJunction="J5" toJunction="J4" end="180" vehsPerHour="17.26353830118776" departLane="free"/>
  <flow id="JF140393" begin="120" fromJunction="J7" toJunction="J5" end="180" vehsPerHour="37.500661533233874" departLane="free"/>
  <flow id="JF140394" begin="120" fromJunction="J7" toJunction="J6" end="180" vehsPerHour="11.031320663731753" departLane="free"/>
  <flow id="JF140395" begin="120" fromJunction="J7" toJunction="J4" end="180" vehsPerHour="15.699681895270244" departLane="free"/>
  <flow id="JF140396" begin="120" fromJunction="J6" toJunction="J5" end="180" vehsPerHour="11.478419498011435" departLane="free"/>
  <flow id="JF140397" begin="120" fromJunction="J6" toJunction="J7" end="180" vehsPerHour="20.4583708873243" departLane="free"/>
  <flow id="JF140398" begin="120" fromJunction="J6" toJunction="J4" end="180" vehsPerHour="39.23427599661708" departLane="free"/>
  <flow id="JF140399" begin="120" fromJunction="J4" toJunction="J5" end="180" vehsPerHour="12.238401951721608" departLane="free"/>
  <flow id="JF140400" begin="120" fromJunction="J4" toJunction="J7" end="180" vehsPerHour="33.88121919196084" departLane="free"/>
  <flow id="JF140401" begin="120" fromJunction="J4" toJunction="J6" end="180" vehsPerHour="4.9782747693660205" departLane="free"/>
  <flow id="JF140402" begin="120" fromJunction="J5" toJunction="J3" end="180" vehsPerHour="6.632588923898334" departLane="free"/>
  <flow id="JF140403" begin="120" fromJunction="J5" toJunction="J0" end="180" vehsPerHour="147.02887495521705" departLane="free"/>
  <flow id="JF140404" begin="120" fromJunction="J7" toJunction="J3" end="180" vehsPerHour="227.00253116636492" departLane="free"/>
  <flow id="JF140405" begin="120" fromJunction="J7" toJunction="J0" end="180" vehsPerHour="33.89763213699126" departLane="free"/>
  <flow id="JF140406" begin="120" fromJunction="J6" toJunction="J3" end="180" vehsPerHour="28.336710938403595" departLane="free"/>
  <flow id="JF140407" begin="120" fromJunction="J6" toJunction="J0" end="180" vehsPerHour="182.0176820264577" departLane="free"/>
  <flow id="JF140408" begin="120" fromJunction="J4" toJunction="J3" end="180" vehsPerHour="182.81044998631702" departLane="free"/>
  <flow id="JF140409" begin="120" fromJunction="J4" toJunction="J0" end="180" vehsPerHour="250.46056577913055" departLane="free"/>
  <flow id="JF140410" begin="180" fromJunction="J3" toJunction="J0" end="240" vehsPerHour="16.73708440543208" departLane="free"/>
  <flow id="JF140411" begin="180" fromJunction="J0" toJunction="J3" end="240" vehsPerHour="39.17597692178456" departLane="free"/>
  <flow id="JF140412" begin="180" fromJunction="J3" toJunction="J5" end="240" vehsPerHour="124.33247617746278" departLane="free"/>
  <flow id="JF140413" begin="180" fromJunction="J3" toJunction="J7" end="240" vehsPerHour="85.78987547200742" departLane="free"/>
  <flow id="JF140414" begin="180" fromJunction="J3" toJunction="J6" end="240" vehsPerHour="75.54199705488787" departLane="free"/>
  <flow id="JF140415" begin="180" fromJunction="J3" toJunction="J4" end="240" vehsPerHour="273.78570943600215" departLane="free"/>
  <flow id="JF140416" begin="180" fromJunction="J0" toJunction="J5" end="240" vehsPerHour="254.81994703993786" departLane="free"/>
  <flow id="JF140417" begin="180" fromJunction="J0" toJunction="J7" end="240" vehsPerHour="139.69259982471294" departLane="free"/>
  <flow id="JF140418" begin="180" fromJunction="J0" toJunction="J6" end="240" vehsPerHour="53.67310207026028" departLane="free"/>
  <flow id="JF140419" begin="180" fromJunction="J0" toJunction="J4" end="240" vehsPerHour="100.68718720225391" departLane="free"/>
  <flow id="JF140420" begin="180" fromJunction="J5" toJunction="J7" end="240" vehsPerHour="9.057543766382928" departLane="free"/>
  <flow id="JF140421" begin="180" fromJunction="J5" toJunction="J6" end="240" vehsPerHour="13.047364350139556" departLane="free"/>
  <flow id="JF140422" begin="180" fromJunction="J5" toJunction="J4" end="240" vehsPerHour="22.656979651262947" departLane="free"/>
  <flow id="JF140423" begin="180" fromJunction="J7" toJunction="J5" end="240" vehsPerHour="18.13207723863527" departLane="free"/>
  <flow id="JF140424" begin="180" fromJunction="J7" toJunction="J6" end="240" vehsPerHour="24.564261313640483" departLane="free"/>
  <flow id="JF140425" begin="180" fromJunction="J7" toJunction="J4" end="240" vehsPerHour="52.2228258433704" departLane="free"/>
  <flow id="JF140426" begin="180" fromJunction="J6" toJunction="J5" end="240" vehsPerHour="64.6877326439151" departLane="free"/>
  <flow id="JF140427" begin="180" fromJunction="J6" toJunction="J7" end="240" vehsPerHour="2.688102443719678" departLane="free"/>
  <flow id="JF140428" begin="180" fromJunction="J6" toJunction="J4" end="240" vehsPerHour="32.19013164873676" departLane="free"/>
  <flow id="JF140429" begin="180" fromJunction="J4" toJunction="J5" end="240" vehsPerHour="6.109533427063232" departLane="free"/>
  <flow id="JF140430" begin="180" fromJunction="J4" toJunction="J7" end="240" vehsPerHour="14.28685963455145" departLane="free"/>
  <flow id="JF140431" begin="180" fromJunction="J4" toJunction="J6" end="240" vehsPerHour="25.21940296811549" departLane="free"/>
  <flow id="JF140432" begin="180" fromJunction="J5" toJunction="J3" end="240" vehsPerHour="147.33818207279768" departLane="free"/>
  <flow id="JF140433" begin="180" fromJunction="J5" toJunction="J0" end="240" vehsPerHour="175.8432079935282" departLane="free"/>
  <flow id="JF140434" begin="180" fromJunction="J7" toJunction="J3" end="240" vehsPerHour="268.4346557993616" departLane="free"/>
  <flow id="JF140435" begin="180" fromJunction="J7" toJunction="J0" end="240" vehsPerHour="175.3513526143658" departLane="free"/>
  <flow id="JF140436" begin="180" fromJunction="J6" toJunction="J3" end="240" vehsPerHour="30.70306931494189" departLane="free"/>
  <flow id="JF140437" begin="180" fromJunction="J6" toJunction="J0" end="240" vehsPerHour="1.6832614334685552" departLane="free"/>
  <flow id="JF140438" begin="180" fromJunction="J4" toJunction="J3" end="240" vehsPerHour="211.98217271189455" departLane="free"/>
  <flow id="JF140439" begin="180" fromJunction="J4" toJunction="J0" end="240" vehsPerHour="136.73120905346704" departLane="free"/>
  <flow id="JF140440" begin="240" fromJunction="J3" toJunction="J0" end="300" vehsPerHour="120.39545007504111" departLane="free"/>
  <flow id="JF140441" begin="240" fromJunction="J0" toJunction="J3" end="300" vehsPerHour="36.09684130731952" departLane="free"/>
  <flow id="JF140442" begin="240" fromJunction="J3" toJunction="J5" end="300" vehsPerHour="65.9969980361316" departLane="free"/>
  <flow id="JF140443" begin="240" fromJunction="J3" toJunction="J7" end="300" vehsPerHour="169.57866125375182" departLane="free"/>
  <flow id="JF140444" begin="240" fromJunction="J3" toJunction="J6" end="300" vehsPerHour="141.56121202261164" departLane="free"/>
  <flow id="JF140445" begin="240" fromJunction="J3" toJunction="J4" end="300" vehsPerHour="22.916762642570486" departLane="free"/>
  <flow id="JF140446" begin="240" fromJunction="J0" toJunction="J5" end="300" vehsPerHour="231.48034533820115" departLane="free"/>
  <flow id="JF140447" begin="240" fromJunction="J0" toJunction="J7" end="300" vehsPerHour="70.15587798264532" departLane="free"/>
  <flow id="JF140448" begin="240" fromJunction="J0" toJunction="J6" end="300" vehsPerHour="88.3339487791754" departLane="free"/>
  <flow id="JF140449" begin="240" fromJunction="J0" toJunction="J4" end="300" vehsPerHour="216.2778821346576" departLane="free"/>
  <flow id="JF140450" begin="240" fromJunction="J5" toJunction="J7" end="300" vehsPerHour="2.2602716314000366" departLane="free"/>
  <flow id="JF140451" begin="240" fromJunction="J5" toJunction="J6" end="300" vehsPerHour="18.62324279391675" departLane="free"/>
  <flow id="JF140452" begin="240" fromJunction="J5" toJunction="J4" end="300" vehsPerHour="37.155425318475125" departLane="free"/>
  <flow id="JF140453" begin="240" fromJunction="J7" toJunction="J5" end="300" vehsPerHour="59.36926572149051" departLane="free"/>
  <flow id="JF140454" begin="240" fromJunction="J7" toJunction="J6" end="300" vehsPerHour="27.351676106378658" departLane="free"/>
  <flow id="JF140455" begin="240" fromJunction="J7" toJunction="J4" end="300" vehsPerHour="57.0895997815448" departLane="free"/>
  <flow id="JF140456" begin="240" fromJunction="J6" toJunction="J5" end="300" vehsPerHour="36.844442982968495" departLane="free"/>
  <flow id="JF140457" begin="240" fromJunction="J6" toJunction="J7" end="300" vehsPerHour="28.837151575570875" departLane="free"/>
  <flow id="JF140458" begin="240" fromJunction="J6" toJunction="J4" end="300" vehsPerHour="19.51025792208785" departLane="free"/>
  <flow id="JF140459" begin="240" fromJunction="J4" toJunction="J5" end="300" vehsPerHour="31.0794302254594" departLane="free"/>
  <flow id="JF140460" begin="240" fromJunction="J4" toJunction="J7" end="300" vehsPerHour="23.414477216873433" departLane="free"/>
  <flow id="JF140461" begin="240" fromJunction="J4" toJunction="J6" end="300" vehsPerHour="4.472301737574498" departLane="free"/>
  <flow id="JF140462" begin="240" fromJunction="J5" toJunction="J3" end="300" vehsPerHour="215.1088778204045" departLane="free"/>
  <flow id="JF140463" begin="240" fromJunction="J5" toJunction="J0" end="300" vehsPerHour="272.44326028596413" departLane="free"/>
  <flow id="JF140464" begin="240" fromJunction="J7" toJunction="J3" end="300" vehsPerHour="162.1885094272321" departLane="free"/>
  <flow id="JF140465" begin="240" fromJunction="J7" toJunction="J0" end="300" vehsPerHour="62.43360005585232" departLane="free"/>
  <flow id="JF140466" begin="240" fromJunction="J6" toJunction="J3" end="300" vehsPerHour="40.29861849248559" departLane="free"/>
  <flow id="JF140467" begin="240" fromJunction="J6" toJunction="J0" end="300" vehsPerHour="38.213775599620575" departLane="free"/>
  <flow id="JF140468" begin="240" fromJunction="J4" toJunction="J3" end="300" vehsPerHour="184.43695097613062" departLane="free"/>
  <flow id="JF140469" begin="240" fromJunction="J4" toJunction="J0" end="300" vehsPerHour="86.30439354986126" departLane="free"/>
  <flow id="JF140470" begin="300" fromJunction="J3" toJunction="J0" end="360" vehsPerHour="20.05234001043255" departLane="free"/>
  <flow id="JF140471" begin="300" fromJunction="J0" toJunction="J3" end="360" vehsPerHour="50.9901915847655" departLane="free"/>
  <flow id="JF140472" begin="300" fromJunction="J3" toJunction="J5" end="360" vehsPerHour="72.23284699454376" departLane="free"/>
  <flow id="JF140473" begin="300" fromJunction="J3" toJunction="J7" end="360" vehsPerHour="172.2312356273233" departLane="free"/>
  <flow id="JF140474" begin="300" fromJunction="J3" toJunction="J6" end="360" vehsPerHour="221.18177193371383" departLane="free"/>
  <flow id="JF140475" begin="300" fromJunction="J3" toJunction="J4" end="360" vehsPerHour="247.51548509278396" departLane="free"/>
  <flow id="JF140476" begin="300" fromJunction="J0" toJunction="J5" end="360" vehsPerHour="230.4751338023533" departLane="free"/>
  <flow id="JF140477" begin="300" fromJunction="J0" toJunction="J7" end="360" vehsPerHour="215.31820580538587" departLane="free"/>
  <flow id="JF140478" begin="300" fromJunction="J0" toJunction="J6" end="360" vehsPerHour="165.12527104140955" departLane="free"/>
  <flow id="JF140479" begin="300" fromJunction="J0" toJunction="J4" end="360" vehsPerHour="170.92205541459276" departLane="free"/>
  <flow id="JF140480" begin="300" fromJunction="J5" toJunction="J7" end="360" vehsPerHour="33.486099028618675" departLane="free"/>
  <flow id="JF140481" begin="300" fromJunction="J5" toJunction="J6" end="360" vehsPerHour="17.16741541639984" departLane="free"/>
  <flow id="JF140482" begin="300" fromJunction="J5" toJunction="J4" end="360" vehsPerHour="55.926559366052565" departLane="free"/>
  <flow id="JF140483" begin="300" fromJunction="J7" toJunction="J5" end="360" vehsPerHour="61.41326553400883" departLane="free"/>
  <flow id="JF140484" begin="300" fromJunction="J7" toJunction="J6" end="360" vehsPerHour="45.43804860339808" departLane="free"/>
  <flow id="JF140485" begin="300" fromJunction="J7" toJunction="J4" end="360" vehsPerHour="10.802883448472008" departLane="free"/>
  <flow id="JF140486" begin="300" fromJunction="J6" toJunction="J5" end="360" vehsPerHour="6.782681649607886" departLane="free"/>
  <flow id="JF140487" begin="300" fromJunction="J6" toJunction="J7" end="360" vehsPerHour="11.407529782575022" departLane="free"/>
  <flow id="JF140488" begin="300" fromJunction="J6" toJunction="J4" end="360" vehsPerHour="34.12168188701604" departLane="free"/>
  <flow id="JF140489" begin="300" fromJunction="J4" toJunction="J5" end="360" vehsPerHour="29.047534142754067" departLane="free"/>
  <flow id="JF140490" begin="300" fromJunction="J4" toJunction="J7" end="360" vehsPerHour="30.43766201611763" departLane="free"/>
  <flow id="JF140491" begin="300" fromJunction="J4" toJunction="J6" end="360" vehsPerHour="25.21809205244117" departLane="free"/>
  <flow id="JF140492" begin="300" fromJunction="J5" toJunction="J3" end="360" vehsPerHour="141.5748795770507" departLane="free"/>
  <flow id="JF140493" begin="300" fromJunction="J5" toJunction="J0" end="360" vehsPerHour="1.1720629112221668" departLane="free"/>
  <flow id="JF140494" begin="300" fromJunction="J7" toJunction="J3" end="360" vehsPerHour="202.44990183390595" departLane="free"/>
  <flow id="JF140495" begin="300" fromJunction="J7" toJunction="J0" end="360" vehsPerHour="43.22786214269044" departLane="free"/>
  <flow id="JF140496" begin="300" fromJunction="J6" toJunction="J3" end="360" vehsPerHour="75.48218333065297" departLane="free"/>
  <flow id="JF140497" begin="300" fromJunction="J6" toJunction="J0" end="360" vehsPerHour="122.61009815190972" departLane="free"/>
  <flow id="JF140498" begin="300" fromJunction="J4" toJunction="J3" end="360" vehsPerHour="134.52111253027942" departLane="free"/>
  <flow id="JF140499" begin="300" fromJunction="J4" toJunction="J0" end="360" vehsPerHour="78.45454850952054" departLane="free"/>
  <flow id="JF140500" begin="360" fromJunction="J3" toJunction="J0" end="420" vehsPerHour="100.6936794460214" departLane="free"/>
  <flow id="JF140501" begin="360" fromJunction="J0" toJunction="J3" end="420" vehsPerHour="35.191981232388414" departLane="free"/>
  <flow id="JF140502" begin="360" fromJunction="J3" toJunction="J5" end="420" vehsPerHour="11.460340046868811" departLane="free"/>
  <flow id="JF140503" begin="360" fromJunction="J3" toJunction="J7" end="420" vehsPerHour="231.3502700807467" departLane="free"/>
  <flow id="JF140504" begin="360" fromJunction="J3" toJunction="J6" end="420" vehsPerHour="138.5792042569319" departLane="free"/>
  <flow id="JF140505" begin="360" fromJunction="J3" toJunction="J4" end="420" vehsPerHour="140.23537328632284" departLane="free"/>
  <flow id="JF140506" begin="360" fromJunction="J0" toJunction="J5" end="420" vehsPerHour="104.45747107533543" departLane="free"/>
  <flow id="JF140507" begin="360" fromJunction="J0" toJunction="J7" end="420" vehsPerHour="244.66357715101935" departLane="free"/>
  <flow id="JF140508" begin="360" fromJunction="J0" toJunction="J6" end="420" vehsPerHour="223.87317963161493" departLane="free"/>
  <flow id="JF140509" begin="360" fromJunction="J0" toJunction="J4" end="420" vehsPerHour="117.59689212568992" departLane="free"/>
  <flow id="JF140510" begin="360" fromJunction="J5" toJunction="J7" end="420" vehsPerHour="27.17163220013038" departLane="free"/>
  <flow id="JF140511" begin="360" fromJunction="J5" toJunction="J6" end="420" vehsPerHour="11.420256208510706" departLane="free"/>
  <flow id="JF140512" begin="360" fromJunction="J5" toJunction="J4" end="420" vehsPerHour="43.272566701584665" departLane="free"/>
  <flow id="JF140513" begin="360" fromJunction="J7" toJunction="J5" end="420" vehsPerHour="67.21791047902795" departLane="free"/>
  <flow id="JF140514" begin="360" fromJunction="J7" toJunction="J6" end="420" vehsPerHour="29.912956234743223" departLane="free"/>
  <flow id="JF140515" begin="360" fromJunction="J7" toJunction="J4" end="420" vehsPerHour="4.206133311399003" departLane="free"/>
  <flow id="JF140516" begin="360" fromJunction="J6" toJunction="J5" end="420" vehsPerHour="9.192065061951316" departLane="free"/>
  <flow id="JF140517" begin="360" fromJunction="J6" toJunction="J7" end="420" vehsPerHour="22.029869563720702" departLane="free"/>
  <flow id="JF140518" begin="360" fromJunction="J6" toJunction="J4" end="420" vehsPerHour="27.09236149846386" departLane="free"/>
  <flow id="JF140519" begin="360" fromJunction="J4" toJunction="J5" end="420" vehsPerHour="28.202260452604104" departLane="free"/>
  <flow id="JF140520" begin="360" fromJunction="J4" toJunction="J7" end="420" vehsPerHour="33.08187312905997" departLane="free"/>
  <flow id="JF140521" begin="360" fromJunction="J4" toJunction="J6" end="420" vehsPerHour="16.870878371256076" departLane="free"/>
  <flow id="JF140522" begin="360" fromJunction="J5" toJunction="J3" end="420" vehsPerHour="52.28316997905865" departLane="free"/>
  <flow id="JF140523" begin="360" fromJunction="J5" toJunction="J0" end="420" vehsPerHour="26.332028163432764" departLane="free"/>
  <flow id="JF140524" begin="360" fromJunction="J7" toJunction="J3" end="420" vehsPerHour="203.4613031019573" departLane="free"/>
  <flow id="JF140525" begin="360" fromJunction="J7" toJunction="J0" end="420" vehsPerHour="263.66976223563825" departLane="free"/>
  <flow id="JF140526" begin="360" fromJunction="J6" toJunction="J3" end="420" vehsPerHour="195.97926804983516" departLane="free"/>
  <flow id="JF140527" begin="360" fromJunction="J6" toJunction="J0" end="420" vehsPerHour="160.22041148931268" departLane="free"/>
  <flow id="JF140528" begin="360" fromJunction="J4" toJunction="J3" end="420" vehsPerHour="111.75220847991521" departLane="free"/>
  <flow id="JF140529" begin="360" fromJunction="J4" toJunction="J0" end="420" vehsPerHour="90.79472894473228" departLane="free"/>
  <flow id="JF140530" begin="420" fromJunction="J3" toJunction="J0" end="480" vehsPerHour="21.71821220603543" departLane="free"/>
  <flow id="JF140531" begin="420" fromJunction="J0" toJunction="J3" end="480" vehsPerHour="62.616066761905124" departLane="free"/>
  <flow id="JF140532" begin="420" fromJunction="J3" toJunction="J5" end="480" vehsPerHour="218.964249782396" departLane="free"/>
  <flow id="JF140533" begin="420" fromJunction="J3" toJunction="J7" end="480" vehsPerHour="180.30347645232308" departLane="free"/>
  <flow id="JF140534" begin="420" fromJunction="J3" toJunction="J6" end="480" vehsPerHour="39.33298028963313" departLane="free"/>
  <flow id="JF140535" begin="420" fromJunction="J3" toJunction="J4" end="480" vehsPerHour="41.12994679142398" departLane="free"/>
  <flow id="JF140536" begin="420" fromJunction="J0" toJunction="J5" end="480" vehsPerHour="177.29920472869892" departLane="free"/>
  <flow id="JF140537" begin="420" fromJunction="J0" toJunction="J7" end="480" vehsPerHour="260.6661919133161" departLane="free"/>
  <flow id="JF140538" begin="420" fromJunction="J0" toJunction="J6" end="480" vehsPerHour="43.36827615015882" departLane="free"/>
  <flow id="JF140539" begin="420" fromJunction="J0" toJunction="J4" end="480" vehsPerHour="61.00458189944928" departLane="free"/>
  <flow id="JF140540" begin="420" fromJunction="J5" toJunction="J7" end="480" vehsPerHour="27.457008017568537" departLane="free"/>
  <flow id="JF140541" begin="420" fromJunction="J5" toJunction="J6" end="480" vehsPerHour="5.8250878359644656" departLane="free"/>
  <flow id="JF140542" begin="420" fromJunction="J5" toJunction="J4" end="480" vehsPerHour="52.96151884155903" departLane="free"/>
  <flow id="JF140543" begin="420" fromJunction="J7" toJunction="J5" end="480" vehsPerHour="8.410707055583824" departLane="free"/>
  <flow id="JF140544" begin="420" fromJunction="J7" toJunction="J6" end="480" vehsPerHour="67.90799858553868" departLane="free"/>
  <flow id="JF140545" begin="420" fromJunction="J7" toJunction="J4" end="480" vehsPerHour="37.45992357600728" departLane="free"/>
  <flow id="JF140546" begin="420" fromJunction="J6" toJunction="J5" end="480" vehsPerHour="53.87402910594181" departLane="free"/>
  <flow id="JF140547" begin="420" fromJunction="J6" toJunction="J7" end="480" vehsPerHour="9.515429286317666" departLane="free"/>
  <flow id="JF140548" begin="420" fromJunction="J6" toJunction="J4" end="480" vehsPerHour="7.595592156474308" departLane="free"/>