<?xml version="1.0" encoding="UTF-8"?>
<routes xmlns:xsi="http://www.w3.org/2001/XMLSchema-instance" xsi:noNamespaceSchemaLocation="http://sumo.dlr.de/xsd/routes_file.xsd">
  <flow id="JF156120" begin="0" fromJunction="J3" toJunction="J0" end="60" vehsPerHour="72.21525235546622" departLane="free"/>
  <flow id="JF156121" begin="0" fromJunction="J0" toJunction="J3" end="60" vehsPerHour="57.427244913821326" departLane="free"/>
  <flow id="JF156122" begin="0" fromJunction="J3" toJunction="J5" end="60" vehsPerHour="426.56948406124746" departLane="free"/>
  <flow id="JF156123" begin="0" fromJunction="J3" toJunction="J7" end="60" vehsPerHour="523.5621464970673" departLane="free"/>
  <flow id="JF156124" begin="0" fromJunction="J3" toJunction="J6" end="60" vehsPerHour="89.83723784136437" departLane="free"/>
  <flow id="JF156125" begin="0" fromJunction="J3" toJunction="J4" end="60" vehsPerHour="364.4444166477382" departLane="free"/>
  <flow id="JF156126" begin="0" fromJunction="J0" toJunction="J5" end="60" vehsPerHour="354.4919913207512" departLane="free"/>
  <flow id="JF156127" begin="0" fromJunction="J0" toJunction="J7" end="60" vehsPerHour="13.973929074611107" departLane="free"/>
  <flow id="JF156128" begin="0" fromJunction="J0" toJunction="J6" end="60" vehsPerHour="187.8925185628169" departLane="free"/>
  <flow id="JF156129" begin="0" fromJunction="J0" toJunction="J4" end="60" vehsPerHour="163.31314683314946" departLane="free"/>
  <flow id="JF156130" begin="60" fromJunction="J3" toJunction="J0" end="120" vehsPerHour="16.554148982050677" departLane="free"/>
  <flow id="JF156131" begin="60" fromJunction="J0" toJunction="J3" end="120" vehsPerHour="12.882991853650994" departLane="free"/>
  <flow id="JF156132" begin="60" fromJunction="J3" toJunction="J5" end="120" vehsPerHour="208.5911979167694" departLane="free"/>
  <flow id="JF156133" begin="60" fromJunction="J3" toJunction="J7" end="120" vehsPerHour="92.70546824454836" departLane="free"/>
  <flow id="JF156134" begin="60" fromJunction="J3" toJunction="J6" end="120" vehsPerHour="60.25497788585829" departLane="free"/>
  <flow id="JF156135" begin="60" fromJunction="J3" toJunction="J4" end="120" vehsPerHour="254.89570024730693" departLane="free"/>
  <flow id="JF156136" begin="60" fromJunction="J0" toJunction="J5" end="120" vehsPerHour="27.632224654314324" departLane="free"/>
  <flow id="JF156137" begin="60" fromJunction="J0" toJunction="J7" end="120" vehsPerHour="38.608939103529494" departLane="free"/>
  <flow id="JF156138" begin="60" fromJunction="J0" toJunction="J6" end="120" vehsPerHour="262.9356482716628" departLane="free"/>
  <flow id="JF156139" begin="60" fromJunction="J0" toJunction="J4" end="120" vehsPerHour="24.69772325067415" departLane="free"/>
  <flow id="JF156140" begin="60" fromJunction="J5" toJunction="J7" end="120" vehsPerHour="8.92427880849441" departLane="free"/>
  <flow id="JF156141" begin="60" fromJunction="J5" toJunction="J6" end="120" vehsPerHour="3.4000996696482986" departLane="free"/>
  <flow id="JF156142" begin="60" fromJunction="J5" toJunction="J4" end="120" vehsPerHour="45.608725521258954" departLane="free"/>
  <flow id="JF156143" begin="60" fromJunction="J7" toJunction="J5" end="120" vehsPerHour="47.10616962730133" departLane="free"/>
  <flow id="JF156144" begin="60" fromJunction="J7" toJunction="J6" end="120" vehsPerHour="29.90902465348038" departLane="free"/>
  <flow id="JF156145" begin="60" fromJunction="J7" toJunction="J4" end="120" vehsPerHour="51.7591613505027" departLane="free"/>
  <flow id="JF156146" begin="60" fromJunction="J6" toJunction="J5" end="120" vehsPerHour="58.27324666330576" departLane="free"/>
  <flow id="JF156147" begin="60" fromJunction="J6" toJunction="J7" end="120" vehsPerHour="12.000961283228468" departLane="free"/>
  <flow id="JF156148" begin="60" fromJunction="J6" toJunction="J4" end="120" vehsPerHour="48.0842110357763" departLane="free"/>
  <flow id="JF156149" begin="60" fromJunction="J4" toJunction="J5" end="120" vehsPerHour="1.1560712807120908" departLane="free"/>
  <flow id="JF156150" begin="60" fromJunction="J4" toJunction="J7" end="120" vehsPerHour="21.276958094087" departLane="free"/>
  <flow id="JF156151" begin="60" fromJunction="J4" toJunction="J6" end="120" vehsPerHour="7.932910966649198" departLane="free"/>
  <flow id="JF156152" begin="60" fromJunction="J5" toJunction="J3" end="120" vehsPerHour="221.59210100598386" departLane="free"/>
  <flow id="JF156153" begin="60" fromJunction="J5" toJunction="J0" end="120" vehsPerHour="38.17813417083884" departLane="free"/>
  <flow id="JF156154" begin="60" fromJunction="J7" toJunction="J3" end="120" vehsPerHour="248.21715113172274" departLane="free"/>
  <flow id="JF156155" begin="60" fromJunction="J7" toJunction="J0" end="120" vehsPerHour="115.90367641735588" departLane="free"/>
  <flow id="JF156156" begin="60" fromJunction="J6" toJunction="J3" end="120" vehsPerHour="136.68093656338644" departLane="free"/>
  <flow id="JF156157" begin="60" fromJunction="J6" toJunction="J0" end="120" vehsPerHour="176.0002339355735" departLane="free"/>
  <flow id="JF156158" begin="60" fromJunction="J4" toJunction="J3" end="120" vehsPerHour="25.06381858056495" departLane="free"/>
  <flow id="JF156159" begin="60" fromJunction="J4" toJunction="J0" end="120" vehsPerHour="250.3591547311762" departLane="free"/>
  <flow id="JF156160" begin="120" fromJunction="J3" toJunction="J0" end="180" vehsPerHour="10.234883853939559" departLane="free"/>
  <flow id="JF156161" begin="120" fromJunction="J0" toJunction="J3" end="180" vehsPerHour="38.954770354749854" departLane="free"/>
  <flow id="JF156162" begin="120" fromJunction="J3" toJunction="J5" end="180" vehsPerHour="339.8517232891191" departLane="free"/>
  <flow id="JF156163" begin="120" fromJunction="J3" toJunction="J7" end="180" vehsPerHour="278.370732405344" departLane="free"/>
  <flow id="JF156164" begin="120" fromJunction="J3" toJunction="J6" end="180" vehsPerHour="137.03178839588824" departLane="free"/>
  <flow id="JF156165" begin="120" fromJunction="J3" toJunction="J4" end="180" vehsPerHour="334.3298917672063" departLane="free"/>
  <flow id="JF156166" begin="120" fromJunction="J0" toJunction="J5" end="180" vehsPerHour="232.9643477651536" departLane="free"/>
  <flow id="JF156167" begin="120" fromJunction="J0" toJunction="J7" end="180" vehsPerHour="104.66099072726293" departLane="free"/>
  <flow id="JF156168" begin="120" fromJunction="J0" toJunction="J6" end="180" vehsPerHour="15.291790884156116" departLane="free"/>
  <flow id="JF156169" begin="120" fromJunction="J0" toJunction="J4" end="180" vehsPerHour="299.1337643448436" departLane="free"/>
  <flow id="JF156170" begin="180" fromJunction="J3" toJunction="J0" end="240" vehsPerHour="25.28327281473264" departLane="free"/>
  <flow id="JF156171" begin="180" fromJunction="J0" toJunction="J3" end="240" vehsPerHour="55.13743140293348" departLane="free"/>
  <flow id="JF156172" begin="180" fromJunction="J3" toJunction="J5" end="240" vehsPerHour="120.53175259619762" departLane="free"/>
  <flow id="JF156173" begin="180" fromJunction="J3" toJunction="J7" end="240" vehsPerHour="184.94559129611645" departLane="free"/>
  <flow id="JF156174" begin="180" fromJunction="J3" toJunction="J6" end="240" vehsPerHour="184.88565011100155" departLane="free"/>
  <flow id="JF156175" begin="180" fromJunction="J3" toJunction="J4" end="240" vehsPerHour="143.76499305587205" departLane="free"/>
  <flow id="JF156176" begin="180" fromJunction="J0" toJunction="J5" end="240" vehsPerHour="35.259270201565236" departLane="free"/>
  <flow id="JF156177" begin="180" fromJunction="J0" toJunction="J7" end="240" vehsPerHour="171.6590664043374" departLane="free"/>
  <flow id="JF156178" begin="180" fromJunction="J0" toJunction="J6" end="240" vehsPerHour="193.72810985821886" departLane="free"/>
  <flow id="JF156179" begin="180" fromJunction="J0" toJunction="J4" end="240" vehsPerHour="151.07709097418396" departLane="free"/>
  <flow id="JF156180" begin="180" fromJunction="J5" toJunction="J7" end="240" vehsPerHour="23.57235714865199" departLane="free"/>
  <flow id="JF156181" begin="180" fromJunction="J5" toJunction="J6" end="240" vehsPerHour="9.044725435593495" departLane="free"/>
  <flow id="JF156182" begin="180" fromJunction="J5" toJunction="J4" end="240" vehsPerHour="20.23492705840036" departLane="free"/>
  <flow id="JF156183" begin="180" fromJunction="J7" toJunction="J5" end="240" vehsPerHour="1.869788192864158" departLane="free"/>
  <flow id="JF156184" begin="180" fromJunction="J7" toJunction="J6" end="240" vehsPerHour="4.948162283632817" departLane="free"/>
  <flow id="JF156185" begin="180" fromJunction="J7" toJunction="J4" end="240" vehsPerHour="27.37054074255248" departLane="free"/>
  <flow id="JF156186" begin="180" fromJunction="J6" toJunction="J5" end="240" vehsPerHour="61.80886295982596" departLane="free"/>
  <flow id="JF156187" begin="180" fromJunction="J6" toJunction="J7" end="240" vehsPerHour="21.119890197782844" departLane="free"/>
  <flow id="JF156188" begin="180" fromJunction="J6" toJunction="J4" end="240" vehsPerHour="58.30230222247225" departLane="free"/>
  <flow id="JF156189" begin="180" fromJunction="J4" toJunction="J5" end="240" vehsPerHour="22.87905333591996" departLane="free"/>
  <flow id="JF156190" begin="180" fromJunction="J4" toJunction="J7" end="240" vehsPerHour="9.335781049541588" departLane="free"/>
  <flow id="JF156191" begin="180" fromJunction="J4" toJunction="J6" end="240" vehsPerHour="20.487872761580284" departLane="free"/>
  <flow id="JF156192" begin="180" fromJunction="J5" toJunction="J3" end="240" vehsPerHour="268.0960727530967" departLane="free"/>
  <flow id="JF156193" begin="180" fromJunction="J5" toJunction="J0" end="240" vehsPerHour="132.65468448481738" departLane="free"/>
  <flow id="JF156194" begin="180" fromJunction="J7" toJunction="J3" end="240" vehsPerHour="272.64552526063426" departLane="free"/>
  <flow id="JF156195" begin="180" fromJunction="J7" toJunction="J0" end="240" vehsPerHour="271.88991429852086" departLane="free"/>
  <flow id="JF156196" begin="180" fromJunction="J6" toJunction="J3" end="240" vehsPerHour="253.43486058459033" departLane="free"/>
  <flow id="JF156197" begin="180" fromJunction="J6" toJunction="J0" end="240" vehsPerHour="92.80412750559123" departLane="free"/>
  <flow id="JF156198" begin="180" fromJunction="J4" toJunction="J3" end="240" vehsPerHour="83.16702624369336" departLane="free"/>
  <flow id="JF156199" begin="180" fromJunction="J4" toJunction="J0" end="240" vehsPerHour="274.6298686196805" departLane="free"/>
  <flow id="JF156200" begin="240" fromJunction="J3" toJunction="J0" end="300" vehsPerHour="68.37263874316682" departLane="free"/>
  <flow id="JF156201" begin="240" fromJunction="J0" toJunction="J3" end="300" vehsPerHour="16.554826343247907" departLane="free"/>
  <flow id="JF156202" begin="240" fromJunction="J3" toJunction="J5" end="300" vehsPerHour="248.00489826064305" departLane="free"/>
  <flow id="JF156203" begin="240" fromJunction="J3" toJunction="J7" end="300" vehsPerHour="93.73152523413819" departLane="free"/>
  <flow id="JF156204" begin="240" fromJunction="J3" toJunction="J6" end="300" vehsPerHour="245.43320267602581" departLane="free"/>
  <flow id="JF156205" begin="240" fromJunction="J3" toJunction="J4" end="300" vehsPerHour="244.2545829934336" departLane="free"/>
  <flow id="JF156206" begin="240" fromJunction="J0" toJunction="J5" end="300" vehsPerHour="273.735797548201" departLane="free"/>
  <flow id="JF156207" begin="240" fromJunction="J0" toJunction="J7" end="300" vehsPerHour="56.76037633209989" departLane="free"/>
  <flow id="JF156208" begin="240" fromJunction="J0" toJunction="J6" end="300" vehsPerHour="5.528125820672087" departLane="free"/>
  <flow id="JF156209" begin="240" fromJunction="J0" toJunction="J4" end="300" vehsPerHour="130.00958352073735" departLane="free"/>
  <flow id="JF156210" begin="240" fromJunction="J5" toJunction="J7" end="300" vehsPerHour="22.610350364474318" departLane="free"/>
  <flow id="JF156211" begin="240" fromJunction="J5" toJunction="J6" end="300" vehsPerHour="12.031278268008599" departLane="free"/>
  <flow id="JF156212" begin="240" fromJunction="J5" toJunction="J4" end="300" vehsPerHour="5.23264350046481" departLane="free"/>
  <flow id="JF156213" begin="240" fromJunction="J7" toJunction="J5" end="300" vehsPerHour="38.1981065508946" departLane="free"/>
  <flow id="JF156214" begin="240" fromJunction="J7" toJunction="J6" end="300" vehsPerHour="3.5227900426613576" departLane="free"/>
  <flow id="JF156215" begin="240" fromJunction="J7" toJunction="J4" end="300" vehsPerHour="54.41520221899844" departLane="free"/>
  <flow id="JF156216" begin="240" fromJunction="J6" toJunction="J5" end="300" vehsPerHour="11.410972955235543" departLane="free"/>
  <flow id="JF156217" begin="240" fromJunction="J6" toJunction="J7" end="300" vehsPerHour="21.761285035157687" departLane="free"/>
  <flow id="JF156218" begin="240" fromJunction="J6" toJunction="J4" end="300" vehsPerHour="45.643195420704494" departLane="free"/>
  <flow id="JF156219" begin="240" fromJunction="J4" toJunction="J5" end="300" vehsPerHour="33.446789265498886" departLane="free"/>
  <flow id="JF156220" begin="240" fromJunction="J4" toJunction="J7" end="300" vehsPerHour="3.532648124016444" departLane="free"/>
  <flow id="JF156221" begin="240" fromJunction="J4" toJunction="J6" end="300" vehsPerHour="5.7663549320690555" departLane="free"/>
  <flow id="JF156222" begin="240" fromJunction="J5" toJunction="J3" end="300" vehsPerHour="187.08193988451166" departLane="free"/>
  <flow id="JF156223" begin="240" fromJunction="J5" toJunction="J0" end="300" vehsPerHour="169.45888333317092" departLane="free"/>
  <flow id="JF156224" begin="240" fromJunction="J7" toJunction="J3" end="300" vehsPerHour="76.18473615054093" departLane="free"/>
  <flow id="JF156225" begin="240" fromJunction="J7" toJunction="J0" end="300" vehsPerHour="176.95571710649105" departLane="free"/>
  <flow id="JF156226" begin="240" fromJunction="J6" toJunction="J3" end="300" vehsPerHour="85.55209400573811" departLane="free"/>
  <flow id="JF156227" begin="240" fromJunction="J6" toJunction="J0" end="300" vehsPerHour="233.48881474843083" departLane="free"/>
  <flow id="JF156228" begin="240" fromJunction="J4" toJunction="J3" end="300" vehsPerHour="123.38971061468341" departLane="free"/>
  <flow id="JF156229" begin="240" fromJunction="J4" toJunction="J0" end="300" vehsPerHour="33.20677399445533" departLane="free"/>
  <flow id="JF156230" begin="300" fromJunction="J3" toJunction="J0" end="360" vehsPerHour="128.8787115856345" departLane="free"/>
  <flow id="JF156231" begin="300" fromJunction="J0" toJunction="J3" end="360" vehsPerHour="46.78393630055941" departLane="free"/>
  <flow id="JF156232" begin="300" fromJunction="J3" toJunction="J5" end="360" vehsPerHour="36.4959465951482" departLane="free"/>
  <flow id="JF156233" begin="300" fromJunction="J3" toJunction="J7" end="360" vehsPerHour="99.47851847968806" departLane="free"/>
  <flow id="JF156234" begin="300" fromJunction="J3" toJunction="J6" end="360" vehsPerHour="84.02996783672944" departLane="free"/>
  <flow id="JF156235" begin="300" fromJunction="J3" toJunction="J4" end="360" vehsPerHour="12.193841765634259" departLane="free"/>
  <flow id="JF156236" begin="300" fromJunction="J0" toJunction="J5" end="360" vehsPerHour="10.951248063506865" departLane="free"/>
  <flow id="JF156237" begin="300" fromJunction="J0" toJunction="J7" end="360" vehsPerHour="97.3498713170285" departLane="free"/>
  <flow id="JF156238" begin="300" fromJunction="J0" toJunction="J6" end="360" vehsPerHour="85.93427170948485" departLane="free"/>
  <flow id="JF156239" begin="300" fromJunction="J0" toJunction="J4" end="360" vehsPerHour="221.32712171888159" departLane="free"/>
  <flow id="JF156240" begin="300" fromJunction="J5" toJunction="J7" end="360" vehsPerHour="24.21777025885415" departLane="free"/>
  <flow id="JF156241" begin="300" fromJunction="J5" toJunction="J6" end="360" vehsPerHour="17.27613482786599" departLane="free"/>
  <flow id="JF156242" begin="300" fromJunction="J5" toJunction="J4" end="360" vehsPerHour="51.683167982993616" departLane="free"/>
  <flow id="JF156243" begin="300" fromJunction="J7" toJunction="J5" end="360" vehsPerHour="51.670466525208624" departLane="free"/>
  <flow id="JF156244" begin="300" fromJunction="J7" toJunction="J6" end="360" vehsPerHour="11.117682444146606" departLane="free"/>
  <flow id="JF156245" begin="300" fromJunction="J7" toJunction="J4" end="360" vehsPerHour="14.6771925435096" departLane="free"/>
  <flow id="JF156246" begin="300" fromJunction="J6" toJunction="J5" end="360" vehsPerHour="14.366428137605755" departLane="free"/>
  <flow id="JF156247" begin="300" fromJunction="J6" toJunction="J7" end="360" vehsPerHour="33.63329558971475" departLane="free"/>
  <flow id="JF156248" begin="300" fromJunction="J6" toJunction="J4" end="360" vehsPerHour="48.17317335472346" departLane="free"/>
  <flow id="JF156249" begin="300" fromJunction="J4" toJunction="J5" end="360" vehsPerHour="30.230487573183343" departLane="free"/>
  <flow id="JF156250" begin="300" fromJunction="J4" toJunction="J7" end="360" vehsPerHour="1.7126098597362158" departLane="free"/>
  <flow id="JF156251" begin="300" fromJunction="J4" toJunction="J6" end="360" vehsPerHour="25.83095746667245" departLane="free"/>
  <flow id="JF156252" begin="300" fromJunction="J5" toJunction="J3" end="360" vehsPerHour="180.00239503705382" departLane="free"/>
  <flow id="JF156253" begin="300" fromJunction="J5" toJunction="J0" end="360" vehsPerHour="246.10276910495887" departLane="free"/>
  <flow id="JF156254" begin="300" fromJunction="J7" toJunction="J3" end="360" vehsPerHour="33.56206046420112" departLane="free"/>
  <flow id="JF156255" begin="300" fromJunction="J7" toJunction="J0" end="360" vehsPerHour="6.632759041738981" departLane="free"/>
  <flow id="JF156256" begin="300" fromJunction="J6" toJunction="J3" end="360" vehsPerHour="64.47100643224428" departLane="free"/>
  <flow id="JF156257" begin="300" fromJunction="J6" toJunction="J0" end="360" vehsPerHour="135.60399515139474" departLane="free"/>
  <flow id="JF156258" begin="300" fromJunction="J4" toJunction="J3" end="360" vehsPerHour="192.43953197021082" departLane="free"/>
  <flow id="JF156259" begin="300" fromJunction="J4" toJunction="J0" end="360" vehsPerHour="264.0424771072992" departLane="free"/>
  <flow id="JF156260" begin="360" fromJunction="J3" toJunction="J0" end="420" vehsPerHour="122.69055763124574" departLane="free"/>
  <flow id="JF156261" begin="360" fromJunction="J0" toJunction="J3" end="420" vehsPerHour="23.525768301526515" departLane="free"/>
  <flow id="JF156262" begin="360" fromJunction="J3" toJunction="J5" end="420" vehsPerHour="16.918768299017845" departLane="free"/>
  <flow id="JF156263" begin="360" fromJunction="J3" toJunction="J7" end="420" vehsPerHour="235.54887161229212" departLane="free"/>
  <flow id="JF156264" begin="360" fromJunction="J3" toJunction="J6" end="420" vehsPerHour="379.03884044697287" departLane="free"/>
  <flow id="JF156265" begin="360" fromJunction="J3" toJunction="J4" end="420" vehsPerHour="290.34230082792516" departLane="free"/>
  <flow id="JF156266" begin="360" fromJunction="J0" toJunction="J5" end="420" vehsPerHour="546.9469827424948" departLane="free"/>
  <flow id="JF156267" begin="360" fromJunction="J0" toJunction="J7" end="420" vehsPerHour="506.1635980377336" departLane="free"/>
  <flow id="JF156268" begin="360" fromJunction="J0" toJunction="J6" end="420" vehsPerHour="472.4479694120296" departLane="free"/>
  <flow id="JF156269" begin="360" fromJunction="J0" toJunction="J4" end="420" vehsPerHour="44.293541850069005" departLane="free"/>
  <flow id="JF156270" begin="420" fromJunction="J3" toJunction="J0" end="480" vehsPerHour="75.10002916123425" departLane="free"/>
  <flow id="JF156271" begin="420" fromJunction="J0" toJunction="J3" end="480" vehsPerHour="41.81434568080406" departLane="free"/>
  <flow id="JF156272" begin="420" fromJunction="J3" toJunction="J5" end="480" vehsPerHour="251.12180294404794" departLane="free"/>
  <flow id="JF156273" begin="420" fromJunction="J3" toJunction="J7" end="480" vehsPerHour="48.326810883560135" departLane="free"/>
  <flow id="JF156274" begin="420" fromJunction="J3" toJunction="J6" end="480" vehsPerHour="259.5035549762242" departLane="free"/>
  <flow id="JF156275" begin="420" fromJunction="J3" toJunction="J4" end="480" vehsPerHour="6.993773751790621" departLane="free"/>
  <flow id="JF156276" begin="420" fromJunction="J0" toJunction="J5" end="480" vehsPerHour="156.51870991809955" departLane="free"/>
  <flow id="JF156277" begin="420" fromJunction="J0" toJunction="J7" end="480" vehsPerHour="260.5783795929591" departLane="free"/>
  <flow id="JF156278" begin="420" fromJunction="J0" toJunction="J6" end="480" vehsPerHour="175.52617765555834" departLane="free"/>
  <flow id="JF156279" begin="420" fromJunction="J0" toJunction="J4" end="480" vehsPerHour="179.5876002215612" departLane="free"/>
  <flow id="JF156280" begin="420" fromJunction="J5" toJunction="J7" end="480" vehsPerHour="23.848708876489916" departLane="free"/>
  <flow id="JF156281" begin="420" fromJunction="J5" toJunction="J6" end="480" vehsPerHour="16.833263961432156" departLane="free"/>
  <flow id="JF156282" begin="420" fromJunction="J5" toJunction="J4" end="480" vehsPerHour="44.03757965716414" departLane="free"/>
  <flow id="JF156283" begin="420" fromJunction="J7" toJunction="J5" end="480" vehsPerHour="2.8279599886584976" departLane="free"/>
  <flow id="JF156284" begin="420" fromJunction="J7" toJunction="J6" end="480" vehsPerHour="7.1731727201022615" departLane="free"/>
  <flow id="JF156285" begin="420" fromJunction="J7" toJunction="J4" end="480" vehsPerHour="40.291250907390534" departLane="free"/>
  <flow id="JF156286" begin="420" fromJunction="J6" toJunction="J5" end="480" vehsPerHour="55.32556181522088" departLane="free"/>
  <flow id="JF156287" begin="420" fromJunction="J6" toJunction="J7" end="480" vehsPerHour="34.313684861414906" departLane="free"/>
  <flow id="JF156288" begin="420" fromJunction="J6" toJunction="J4" end="480" vehsPerHour="4.279806755180073" departLane="free"/>
  <flow id="JF156289" begin="420" fromJunction="J4" toJunction="J5" end="480" vehsPerHour="16.632725948704135" departLane="free"/>
  <flow id="JF156290" begin="420" fromJunction="J4" toJunction="J7" end="480" vehsPerHour="20.0777541797239" departLane="free"/>
  <flow id="JF156291" begin="420" fromJunction="J4" toJunction="J6" end="480" vehsPerHour="20.407433287694396" departLane="free"/>
  <flow id="JF156292" begin="420" fromJunction="J5" toJunction="J3" end="480" vehsPerHour="193.11804844194097" departLane="free"/>
  <flow id="JF156293" begin="420" fromJunction="J5" toJunction="J0" end="480" vehsPerHour="148.29016813659868" departLane="free"/>
  <flow id="JF156294" begin="420" fromJunction="J7" toJunction="J3" end="480" vehsPerHour="251.49646737687064" departLane="free"/>
  <flow id="JF156295" begin="420" fromJunction="J7" toJunction="J0" end="480" vehsPerHour="246.4098668779683" departLane="free"/>
  <flow id="JF156296" begin="420" fromJunction="J6" toJunction="J3" end="480" vehsPerHour="246.7848245075586" departLane="free"/>
  <flow id="JF156297" begin="420" fromJunction="J6" toJunction="J0" end="480" vehsPerHour="117.73198245174802" departLane="free"/>
  <flow id="JF156298" begin="420" fromJunction="J4" toJunction="J3" end="480" vehsPerHour="190.08116490519532" departLane="free"/>
  <flow id="JF156299" begin="420" fromJunction="J4" toJunction="J0" end="480" vehsPerHour="267.2783601576288" departLane="free"/>
  <flow id="JF156300" begin="480" fromJunction="J3" toJunction="J0" end="540" vehsPerHour="111.92221791435168" departLane="free"/>
  <flow id="JF156301" begin="480" fromJunction="J0" toJunction="J3" end="540" vehsPerHour="21.51642619322811" departLane="free"/>
  <flow id="JF156302" begin="480" fromJunction="J3" toJunction="J5" end="540" vehsPerHour="8.777995896143414" departLane="free"/>
  <flow id="JF156303" begin="480" fromJunction="J3" toJunction="J7" end="540" vehsPerHour="83.81548910388484" departLane="free"/>
  <flow id="JF156304" begin="480" fromJunction="J3" toJunction="J6" end="540" vehsPerHour="125.32077491060141" departLane="free"/>
  <flow id="JF156305" begin="480" fromJunction="J3" toJunction="J4" end="540" vehsPerHour="135.57424453690388" departLane="free"/>
  <flow id="JF156306" begin="480" fromJunction="J0" toJunction="J5" end="540" vehsPerHour="17.230177023792304" departLane="free"/>
  <flow id="JF156307" begin="480" fromJunction="J0" toJunction="J7" end="540" vehsPerHour="138.45942804323175" departLane="free"/>
  <flow id="JF156308" begin="480" fromJunction="J0" toJunction="J6" end="540" vehsPerHour="186.34155728677976" departLane="free"/>
  <flow id="JF156309" begin="480" fromJunction="J0" toJunction="J4" end="540" vehsPerHour="200.232784583337" departLane="free"/>
  <flow id="JF156310" begin="480" fromJunction="J5" toJunction="J7" end="540" vehsPerHour="16.02669331405467" departLane="free"/>
  <flow id="JF156311" begin="480" fromJunction="J5" toJunction="J6" end="540" vehsPerHour="30.040586004295875" departLane="free"/>
  <flow id="JF156312" begin="480" fromJunction="J5" toJunction="J4" end="540" vehsPerHour="31.261612370590825" departLane="free"/>
  <flow id="JF156313" begin="480" fromJunction="J7" toJunction="J5" end="540" vehsPerHour="29.52153722408436" departLane="free"/>
  <flow id="JF156314" begin="480" fromJunction="J7" toJunction="J6" end="540" vehsPerHour="22.086184532287636" departLane="free"/>
  <flow id="JF156315" begin="480" fromJunction="J7" toJunction="J4" end="540" vehsPerHour="39.744865653264426" departLane="free"/>
  <flow id="JF156316" begin="480" fromJunction="J6" toJunction="J5" end="540" vehsPerHour="35.621266142821554" departLane="free"/>
  <flow id="JF156317" begin="480" fromJunction="J6" toJunction="J7" end="540" vehsPerHour="3.421188000153548" departLane="free"/>
  <flow id="JF156318" begin="480" fromJunction="J6" toJunction="J4" end="540" vehsPerHour="52.57553584091828" departLane="free"/>
  <flow id="JF156319" begin="480" fromJunction="J4" toJunction="J5" end="540" vehsPerHour="31.87693872672607" departLane="free"/>
  <flow id="JF156320" begin="480" fromJunction="J4" toJunction="J7" end="540" vehsPerHour="16.176084927360815" departLane="free"/>
  <flow id="JF156321" begin="480" fromJunction="J4" toJunction="J6" end="540" vehsPerHour="9.559782078615564" departLane="free"/>
  <flow id="JF156322" begin="480" fromJunction="J5" toJunction="J3" end="540" vehsPerHour="182.24908142889916" departLane="free"/>
  <flow id="JF156323" begin="480" fromJunction="J5" toJunction="J0" end="540" vehsPerHour="16.928125616086756" departLane="free"/>
  <flow id="JF156324" begin="480" fromJunction="J7" toJunction="J3" end="540" vehsPerHour="118.92833868621675" departLane="free"/>
  <flow id="JF156325" begin="480" fromJunction="J7" toJunction="J0" end="540" vehsPerHour="88.17319869412317" departLane="free"/>
  <flow id="JF156326" begin="480" fromJunction="J6" toJunction="J3" end="540" vehsPerHour="185.89651601204386" departLane="free"/>
  <flow id="JF156327" begin="480" fromJunction="J6" toJunction="J0" end="540" vehsPerHour="134.26858012655404" departLane="free"/>
  <flow id="JF156328" begin="480" fromJunction="J4" toJunction="J3" end="540" vehsPerHour="65.64619614368327" departLane="free"/>
  <flow id="JF156329" begin="480" fromJunction="J4" toJunction="J0" end="540" vehsPerHour="206.97293334100493" departLane="free"/>
  <flow id="JF156330" begin="540" fromJunction="J3" toJunction="J0" end="600" vehsPerHour="12.653249383797345" departLane="free"/>
  <flow id="JF156331" begin="540" fromJunction="J0" toJunction="J3" end="600" vehsPerHour="7.588633720030159" departLane="free"/>
  <flow id="JF156332" begin="540" fromJunction="J3" toJunction="J5" end="600" vehsPerHour="192.81566654770288" departLane="free"/>
  <flow id="JF156333" begin="540" fromJunction="J3" toJunction="J7" end="600" vehsPerHour="261.19719591854556" departLane="free"/>
  <flow id="JF156334" begin="540" fromJunction="J3" toJunction="J6" end="600" vehsPerHour="42.49939607361326" departLane="free"/>
  <flow id="JF156335" begin="540" fromJunction="J3" toJunction="J4" end="600" vehsPerHour="10.682242920139329" departLane="free"/>
  <flow id="JF156336" begin="540" fromJunction="J0" toJunction="J5" end="600" vehsPerHour="192.12734174770156" departLane="free"/>
  <flow id="JF156337" begin="540" fromJunction="J0" toJunction="J7" end="600" vehsPerHour="57.02635036341225" departLane="free"/>
  <flow id="JF156338" begin="540" fromJunction="J0" toJunction="J6" end="600" vehsPerHour="55.29270193207963" departLane="free"/>
  <flow id="JF156339" begin="540" fromJunction="J0" toJunction="J4" end="600" vehsPerHour="250.2919228376997" departLane="free"/>
  <flow id="JF156340" begin="540" fromJunction="J5" toJunction="J7" end="600" vehsPerHour="13.272840508029638" departLane="free"/>
  <flow id="JF156341" begin="540" fromJunction="J5" toJunction="J6" end="600" vehsPerHour="23.321662774276973" departLane="free"/>
  <flow id="JF156342" begin="540" fromJunction="J5" toJunction="J4" end="600" vehsPerHour="25.700978928899502" departLane="free"/>
  <flow id="JF156343" begin="540" fromJunction="J7" toJunction="J5" end="600" vehsPerHour="1.0261004151980688" departLane="free"/>
  <flow id="JF156344" begin="540" fromJunction="J7" toJunction="J6" end="600" vehsPerHour="46.121486245559645" departLane="free"/>
  <flow id="JF156345" begin="540" fromJunction="J7" toJunction="J4" end="600" vehsPerHour="14.59394206091356" departLane="free"/>
  <flow id="JF156346" begin="540" fromJunction="J6" toJunction="J5" end="600" vehsPerHour="48.56068458285567" departLane="free"/>
  <flow id="JF156347" begin="540" fromJunction="J6" toJunction="J7" end="600" vehsPerHour="3.385408265526952" departLane="free"/>
  <flow id="JF156348" begin="540" fromJunction="J6" toJunction="J4" end="600" vehsPerHour="32.387493066013626" departLane="free"/>