<?xml version="1.0" encoding="UTF-8"?>
<routes xmlns:xsi="http://www.w3.org/2001/XMLSchema-instance" xsi:noNamespaceSchemaLocation="http://sumo.dlr.de/xsd/routes_file.xsd">
  <flow id="JF148140" begin="0" fromJunction="J3" toJunction="J0" end="60" vehsPerHour="35.20162273151077" departLane="free"/>
  <flow id="JF148141" begin="0" fromJunction="J0" toJunction="J3" end="60" vehsPerHour="34.57572533986507" departLane="free"/>
  <flow id="JF148142" begin="0" fromJunction="J3" toJunction="J5" end="60" vehsPerHour="413.4246140235484" departLane="free"/>
  <flow id="JF148143" begin="0" fromJunction="J3" toJunction="J7" end="60" vehsPerHour="474.9994262913948" departLane="free"/>
  <flow id="JF148144" begin="0" fromJunction="J3" toJunction="J6" end="60" vehsPerHour="122.72856427483438" departLane="free"/>
  <flow id="JF148145" begin="0" fromJunction="J3" toJunction="J4" end="60" vehsPerHour="93.49983775715914" departLane="free"/>
  <flow id="JF148146" begin="0" fromJunction="J0" toJunction="J5" end="60" vehsPerHour="382.9635756351574" departLane="free"/>
  <flow id="JF148147" begin="0" fromJunction="J0" toJunction="J7" end="60" vehsPerHour="240.40188869548084" departLane="free"/>
  <flow id="JF148148" begin="0" fromJunction="J0" toJunction="J6" end="60" vehsPerHour="151.46407218625237" departLane="free"/>
  <flow id="JF148149" begin="0" fromJunction="J0" toJunction="J4" end="60" vehsPerHour="392.773079798683" departLane="free"/>
  <flow id="JF148150" begin="60" fromJunction="J3" toJunction="J0" end="120" vehsPerHour="1.7516826846210285" departLane="free"/>
  <flow id="JF148151" begin="60" fromJunction="J0" toJunction="J3" end="120" vehsPerHour="29.21878739559939" departLane="free"/>
  <flow id="JF148152" begin="60" fromJunction="J3" toJunction="J5" end="120" vehsPerHour="220.25938262386455" departLane="free"/>
  <flow id="JF148153" begin="60" fromJunction="J3" toJunction="J7" end="120" vehsPerHour="499.63852706506765" departLane="free"/>
  <flow id="JF148154" begin="60" fromJunction="J3" toJunction="J6" end="120" vehsPerHour="165.03079255015598" departLane="free"/>
  <flow id="JF148155" begin="60" fromJunction="J3" toJunction="J4" end="120" vehsPerHour="280.74434496681636" departLane="free"/>
  <flow id="JF148156" begin="60" fromJunction="J0" toJunction="J5" end="120" vehsPerHour="155.70236810580923" departLane="free"/>
  <flow id="JF148157" begin="60" fromJunction="J0" toJunction="J7" end="120" vehsPerHour="496.0627897630123" departLane="free"/>
  <flow id="JF148158" begin="60" fromJunction="J0" toJunction="J6" end="120" vehsPerHour="223.90406876600912" departLane="free"/>
  <flow id="JF148159" begin="60" fromJunction="J0" toJunction="J4" end="120" vehsPerHour="386.1581998822107" departLane="free"/>
  <flow id="JF148160" begin="120" fromJunction="J3" toJunction="J0" end="180" vehsPerHour="128.51359279584136" departLane="free"/>
  <flow id="JF148161" begin="120" fromJunction="J0" toJunction="J3" end="180" vehsPerHour="55.856252499398366" departLane="free"/>
  <flow id="JF148162" begin="120" fromJunction="J3" toJunction="J5" end="180" vehsPerHour="47.825482742414174" departLane="free"/>
  <flow id="JF148163" begin="120" fromJunction="J3" toJunction="J7" end="180" vehsPerHour="222.12314729628426" departLane="free"/>
  <flow id="JF148164" begin="120" fromJunction="J3" toJunction="J6" end="180" vehsPerHour="89.86958835207506" departLane="free"/>
  <flow id="JF148165" begin="120" fromJunction="J3" toJunction="J4" end="180" vehsPerHour="131.9616446082014" departLane="free"/>
  <flow id="JF148166" begin="120" fromJunction="J0" toJunction="J5" end="180" vehsPerHour="36.9108559014568" departLane="free"/>
  <flow id="JF148167" begin="120" fromJunction="J0" toJunction="J7" end="180" vehsPerHour="126.888649798019" departLane="free"/>
  <flow id="JF148168" begin="120" fromJunction="J0" toJunction="J6" end="180" vehsPerHour="50.73238897136246" departLane="free"/>
  <flow id="JF148169" begin="120" fromJunction="J0" toJunction="J4" end="180" vehsPerHour="52.65844621966613" departLane="free"/>
  <flow id="JF148170" begin="120" fromJunction="J5" toJunction="J7" end="180" vehsPerHour="19.986582833176875" departLane="free"/>
  <flow id="JF148171" begin="120" fromJunction="J5" toJunction="J6" end="180" vehsPerHour="15.11310536360183" departLane="free"/>
  <flow id="JF148172" begin="120" fromJunction="J5" toJunction="J4" end="180" vehsPerHour="66.21152887765123" departLane="free"/>
  <flow id="JF148173" begin="120" fromJunction="J7" toJunction="J5" end="180" vehsPerHour="10.725082980267539" departLane="free"/>
  <flow id="JF148174" begin="120" fromJunction="J7" toJunction="J6" end="180" vehsPerHour="10.127292226887423" departLane="free"/>
  <flow id="JF148175" begin="120" fromJunction="J7" toJunction="J4" end="180" vehsPerHour="57.7000067781449" departLane="free"/>
  <flow id="JF148176" begin="120" fromJunction="J6" toJunction="J5" end="180" vehsPerHour="51.78829362719355" departLane="free"/>
  <flow id="JF148177" begin="120" fromJunction="J6" toJunction="J7" end="180" vehsPerHour="23.46275760718007" departLane="free"/>
  <flow id="JF148178" begin="120" fromJunction="J6" toJunction="J4" end="180" vehsPerHour="5.731417695545407" departLane="free"/>
  <flow id="JF148179" begin="120" fromJunction="J4" toJunction="J5" end="180" vehsPerHour="1.6933030656285926" departLane="free"/>
  <flow id="JF148180" begin="120" fromJunction="J4" toJunction="J7" end="180" vehsPerHour="25.225129233030717" departLane="free"/>
  <flow id="JF148181" begin="120" fromJunction="J4" toJunction="J6" end="180" vehsPerHour="10.777945904139768" departLane="free"/>
  <flow id="JF148182" begin="120" fromJunction="J5" toJunction="J3" end="180" vehsPerHour="265.83521473671306" departLane="free"/>
  <flow id="JF148183" begin="120" fromJunction="J5" toJunction="J0" end="180" vehsPerHour="71.33548874542093" departLane="free"/>
  <flow id="JF148184" begin="120" fromJunction="J7" toJunction="J3" end="180" vehsPerHour="140.85236713205612" departLane="free"/>
  <flow id="JF148185" begin="120" fromJunction="J7" toJunction="J0" end="180" vehsPerHour="241.65858592602572" departLane="free"/>
  <flow id="JF148186" begin="120" fromJunction="J6" toJunction="J3" end="180" vehsPerHour="104.47602654280212" departLane="free"/>
  <flow id="JF148187" begin="120" fromJunction="J6" toJunction="J0" end="180" vehsPerHour="274.5884148058994" departLane="free"/>
  <flow id="JF148188" begin="120" fromJunction="J4" toJunction="J3" end="180" vehsPerHour="214.36801638004738" departLane="free"/>
  <flow id="JF148189" begin="120" fromJunction="J4" toJunction="J0" end="180" vehsPerHour="213.0219904066069" departLane="free"/>
  <flow id="JF148190" begin="180" fromJunction="J3" toJunction="J0" end="240" vehsPerHour="85.86039615047979" departLane="free"/>
  <flow id="JF148191" begin="180" fromJunction="J0" toJunction="J3" end="240" vehsPerHour="67.29619844725643" departLane="free"/>
  <flow id="JF148192" begin="180" fromJunction="J3" toJunction="J5" end="240" vehsPerHour="426.39386074739235" departLane="free"/>
  <flow id="JF148193" begin="180" fromJunction="J3" toJunction="J7" end="240" vehsPerHour="538.266688374867" departLane="free"/>
  <flow id="JF148194" begin="180" fromJunction="J3" toJunction="J6" end="240" vehsPerHour="143.0880314673834" departLane="free"/>
  <flow id="JF148195" begin="180" fromJunction="J3" toJunction="J4" end="240" vehsPerHour="459.63910055859526" departLane="free"/>
  <flow id="JF148196" begin="180" fromJunction="J0" toJunction="J5" end="240" vehsPerHour="467.10706990287383" departLane="free"/>
  <flow id="JF148197" begin="180" fromJunction="J0" toJunction="J7" end="240" vehsPerHour="329.8212890648195" departLane="free"/>
  <flow id="JF148198" begin="180" fromJunction="J0" toJunction="J6" end="240" vehsPerHour="135.22556149251446" departLane="free"/>
  <flow id="JF148199" begin="180" fromJunction="J0" toJunction="J4" end="240" vehsPerHour="356.01472715141693" departLane="free"/>
  <flow id="JF148200" begin="240" fromJunction="J3" toJunction="J0" end="300" vehsPerHour="77.2627939024888" departLane="free"/>
  <flow id="JF148201" begin="240" fromJunction="J0" toJunction="J3" end="300" vehsPerHour="57.82293173322332" departLane="free"/>
  <flow id="JF148202" begin="240" fromJunction="J3" toJunction="J5" end="300" vehsPerHour="85.38883943160391" departLane="free"/>
  <flow id="JF148203" begin="240" fromJunction="J3" toJunction="J7" end="300" vehsPerHour="175.9235530687869" departLane="free"/>
  <flow id="JF148204" begin="240" fromJunction="J3" toJunction="J6" end="300" vehsPerHour="251.650224496697" departLane="free"/>
  <flow id="JF148205" begin="240" fromJunction="J3" toJunction="J4" end="300" vehsPerHour="259.1146610098761" departLane="free"/>
  <flow id="JF148206" begin="240" fromJunction="J0" toJunction="J5" end="300" vehsPerHour="18.730918562880632" departLane="free"/>
  <flow id="JF148207" begin="240" fromJunction="J0" toJunction="J7" end="300" vehsPerHour="217.60020962130585" departLane="free"/>
  <flow id="JF148208" begin="240" fromJunction="J0" toJunction="J6" end="300" vehsPerHour="245.42082087352756" departLane="free"/>
  <flow id="JF148209" begin="240" fromJunction="J0" toJunction="J4" end="300" vehsPerHour="239.24151723593346" departLane="free"/>
  <flow id="JF148210" begin="240" fromJunction="J5" toJunction="J7" end="300" vehsPerHour="12.363518223750907" departLane="free"/>
  <flow id="JF148211" begin="240" fromJunction="J5" toJunction="J6" end="300" vehsPerHour="3.7102370097158084" departLane="free"/>
  <flow id="JF148212" begin="240" fromJunction="J5" toJunction="J4" end="300" vehsPerHour="51.247560522844104" departLane="free"/>
  <flow id="JF148213" begin="240" fromJunction="J7" toJunction="J5" end="300" vehsPerHour="34.302017456362385" departLane="free"/>
  <flow id="JF148214" begin="240" fromJunction="J7" toJunction="J6" end="300" vehsPerHour="42.25728846479659" departLane="free"/>
  <flow id="JF148215" begin="240" fromJunction="J7" toJunction="J4" end="300" vehsPerHour="1.7159616910218165" departLane="free"/>
  <flow id="JF148216" begin="240" fromJunction="J6" toJunction="J5" end="300" vehsPerHour="54.6263759572558" departLane="free"/>
  <flow id="JF148217" begin="240" fromJunction="J6" toJunction="J7" end="300" vehsPerHour="27.037988531057415" departLane="free"/>
  <flow id="JF148218" begin="240" fromJunction="J6" toJunction="J4" end="300" vehsPerHour="2.211475421616847" departLane="free"/>
  <flow id="JF148219" begin="240" fromJunction="J4" toJunction="J5" end="300" vehsPerHour="25.893537282080842" departLane="free"/>
  <flow id="JF148220" begin="240" fromJunction="J4" toJunction="J7" end="300" vehsPerHour="30.529672734291236" departLane="free"/>
  <flow id="JF148221" begin="240" fromJunction="J4" toJunction="J6" end="300" vehsPerHour="28.449592441891255" departLane="free"/>
  <flow id="JF148222" begin="240" fromJunction="J5" toJunction="J3" end="300" vehsPerHour="249.43997193961292" departLane="free"/>
  <flow id="JF148223" begin="240" fromJunction="J5" toJunction="J0" end="300" vehsPerHour="116.76088136384669" departLane="free"/>
  <flow id="JF148224" begin="240" fromJunction="J7" toJunction="J3" end="300" vehsPerHour="116.61512329831876" departLane="free"/>
  <flow id="JF148225" begin="240" fromJunction="J7" toJunction="J0" end="300" vehsPerHour="189.77858644043107" departLane="free"/>
  <flow id="JF148226" begin="240" fromJunction="J6" toJunction="J3" end="300" vehsPerHour="112.65803455782867" departLane="free"/>
  <flow id="JF148227" begin="240" fromJunction="J6" toJunction="J0" end="300" vehsPerHour="178.473886180633" departLane="free"/>
  <flow id="JF148228" begin="240" fromJunction="J4" toJunction="J3" end="300" vehsPerHour="146.87854066652565" departLane="free"/>
  <flow id="JF148229" begin="240" fromJunction="J4" toJunction="J0" end="300" vehsPerHour="4.282907990759272" departLane="free"/>
  <flow id="JF148230" begin="300" fromJunction="J3" toJunction="J0" end="360" vehsPerHour="100.02090329880745" departLane="free"/>
  <flow id="JF148231" begin="300" fromJunction="J0" toJunction="J3" end="360" vehsPerHour="19.177226167034604" departLane="free"/>
  <flow id="JF148232" begin="300" fromJunction="J3" toJunction="J5" end="360" vehsPerHour="24.66087675731262" departLane="free"/>
  <flow id="JF148233" begin="300" fromJunction="J3" toJunction="J7" end="360" vehsPerHour="145.6995449574544" departLane="free"/>
  <flow id="JF148234" begin="300" fromJunction="J3" toJunction="J6" end="360" vehsPerHour="188.97429752199764" departLane="free"/>
  <flow id="JF148235" begin="300" fromJunction="J3" toJunction="J4" end="360" vehsPerHour="141.85311056348" departLane="free"/>
  <flow id="JF148236" begin="300" fromJunction="J0" toJunction="J5" end="360" vehsPerHour="153.55712965272718" departLane="free"/>
  <flow id="JF148237" begin="300" fromJunction="J0" toJunction="J7" end="360" vehsPerHour="11.276227954639406" departLane="free"/>
  <flow id="JF148238" begin="300" fromJunction="J0" toJunction="J6" end="360" vehsPerHour="1.2965632306861155" departLane="free"/>
  <flow id="JF148239" begin="300" fromJunction="J0" toJunction="J4" end="360" vehsPerHour="112.5987099378422" departLane="free"/>
  <flow id="JF148240" begin="300" fromJunction="J5" toJunction="J7" end="360" vehsPerHour="19.771412359449098" departLane="free"/>
  <flow id="JF148241" begin="300" fromJunction="J5" toJunction="J6" end="360" vehsPerHour="30.92581450630476" departLane="free"/>
  <flow id="JF148242" begin="300" fromJunction="J5" toJunction="J4" end="360" vehsPerHour="1.3015827894332337" departLane="free"/>
  <flow id="JF148243" begin="300" fromJunction="J7" toJunction="J5" end="360" vehsPerHour="36.52067581803586" departLane="free"/>
  <flow id="JF148244" begin="300" fromJunction="J7" toJunction="J6" end="360" vehsPerHour="56.02724411985352" departLane="free"/>
  <flow id="JF148245" begin="300" fromJunction="J7" toJunction="J4" end="360" vehsPerHour="17.19530145160594" departLane="free"/>
  <flow id="JF148246" begin="300" fromJunction="J6" toJunction="J5" end="360" vehsPerHour="21.478574504820216" departLane="free"/>
  <flow id="JF148247" begin="300" fromJunction="J6" toJunction="J7" end="360" vehsPerHour="14.272974171257571" departLane="free"/>
  <flow id="JF148248" begin="300" fromJunction="J6" toJunction="J4" end="360" vehsPerHour="16.39203467485773" departLane="free"/>
  <flow id="JF148249" begin="300" fromJunction="J4" toJunction="J5" end="360" vehsPerHour="16.55020827674174" departLane="free"/>
  <flow id="JF148250" begin="300" fromJunction="J4" toJunction="J7" end="360" vehsPerHour="18.572215712170625" departLane="free"/>
  <flow id="JF148251" begin="300" fromJunction="J4" toJunction="J6" end="360" vehsPerHour="29.701132384447224" departLane="free"/>
  <flow id="JF148252" begin="300" fromJunction="J5" toJunction="J3" end="360" vehsPerHour="2.5467570855376507" departLane="free"/>
  <flow id="JF148253" begin="300" fromJunction="J5" toJunction="J0" end="360" vehsPerHour="115.95915419858315" departLane="free"/>
  <flow id="JF148254" begin="300" fromJunction="J7" toJunction="J3" end="360" vehsPerHour="255.36471966678573" departLane="free"/>
  <flow id="JF148255" begin="300" fromJunction="J7" toJunction="J0" end="360" vehsPerHour="34.10529085042848" departLane="free"/>
  <flow id="JF148256" begin="300" fromJunction="J6" toJunction="J3" end="360" vehsPerHour="36.663381282122465" departLane="free"/>
  <flow id="JF148257" begin="300" fromJunction="J6" toJunction="J0" end="360" vehsPerHour="134.81595935392633" departLane="free"/>
  <flow id="JF148258" begin="300" fromJunction="J4" toJunction="J3" end="360" vehsPerHour="29.40328723732781" departLane="free"/>
  <flow id="JF148259" begin="300" fromJunction="J4" toJunction="J0" end="360" vehsPerHour="193.54472792172913" departLane="free"/>
  <flow id="JF148260" begin="360" fromJunction="J3" toJunction="J0" end="420" vehsPerHour="109.3756257481843" departLane="free"/>
  <flow id="JF148261" begin="360" fromJunction="J0" toJunction="J3" end="420" vehsPerHour="36.75786549934255" departLane="free"/>
  <flow id="JF148262" begin="360" fromJunction="J3" toJunction="J5" end="420" vehsPerHour="70.30661298114661" departLane="free"/>
  <flow id="JF148263" begin="360" fromJunction="J3" toJunction="J7" end="420" vehsPerHour="249.55468822165741" departLane="free"/>
  <flow id="JF148264" begin="360" fromJunction="J3" toJunction="J6" end="420" vehsPerHour="44.473820421058285" departLane="free"/>
  <flow id="JF148265" begin="360" fromJunction="J3" toJunction="J4" end="420" vehsPerHour="186.1836584325349" departLane="free"/>
  <flow id="JF148266" begin="360" fromJunction="J0" toJunction="J5" end="420" vehsPerHour="52.152167137766185" departLane="free"/>
  <flow id="JF148267" begin="360" fromJunction="J0" toJunction="J7" end="420" vehsPerHour="136.25113865969504" departLane="free"/>
  <flow id="JF148268" begin="360" fromJunction="J0" toJunction="J6" end="420" vehsPerHour="194.78938745581408" departLane="free"/>
  <flow id="JF148269" begin="360" fromJunction="J0" toJunction="J4" end="420" vehsPerHour="61.00342225537653" departLane="free"/>
  <flow id="JF148270" begin="360" fromJunction="J5" toJunction="J7" end="420" vehsPerHour="2.7186835153307536" departLane="free"/>
  <flow id="JF148271" begin="360" fromJunction="J5" toJunction="J6" end="420" vehsPerHour="23.53332381807793" departLane="free"/>
  <flow id="JF148272" begin="360" fromJunction="J5" toJunction="J4" end="420" vehsPerHour="21.762855506339942" departLane="free"/>
  <flow id="JF148273" begin="360" fromJunction="J7" toJunction="J5" end="420" vehsPerHour="24.88441252603111" departLane="free"/>
  <flow id="JF148274" begin="360" fromJunction="J7" toJunction="J6" end="420" vehsPerHour="49.38111561007949" departLane="free"/>
  <flow id="JF148275" begin="360" fromJunction="J7" toJunction="J4" end="420" vehsPerHour="0.8220318774475922" departLane="free"/>
  <flow id="JF148276" begin="360" fromJunction="J6" toJunction="J5" end="420" vehsPerHour="67.23583686816855" departLane="free"/>
  <flow id="JF148277" begin="360" fromJunction="J6" toJunction="J7" end="420" vehsPerHour="1.6117242239992986" departLane="free"/>
  <flow id="JF148278" begin="360" fromJunction="J6" toJunction="J4" end="420" vehsPerHour="66.45678192204508" departLane="free"/>
  <flow id="JF148279" begin="360" fromJunction="J4" toJunction="J5" end="420" vehsPerHour="34.06619315264987" departLane="free"/>
  <flow id="JF148280" begin="360" fromJunction="J4" toJunction="J7" end="420" vehsPerHour="22.79374466930742" departLane="free"/>
  <flow id="JF148281" begin="360" fromJunction="J4" toJunction="J6" end="420" vehsPerHour="4.313931687607658" departLane="free"/>
  <flow id="JF148282" begin="360" fromJunction="J5" toJunction="J3" end="420" vehsPerHour="251.07980138203274" departLane="free"/>
  <flow id="JF148283" begin="360" fromJunction="J5" toJunction="J0" end="420" vehsPerHour="8.503646044086976" departLane="free"/>
  <flow id="JF148284" begin="360" fromJunction="J7" toJunction="J3" end="420" vehsPerHour="127.78775621643304" departLane="free"/>
  <flow id="JF148285" begin="360" fromJunction="J7" toJunction="J0" end="420" vehsPerHour="5.242581763661615" departLane="free"/>
  <flow id="JF148286" begin="360" fromJunction="J6" toJunction="J3" end="420" vehsPerHour="120.39194004556417" departLane="free"/>
  <flow id="JF148287" begin="360" fromJunction="J6" toJunction="J0" end="420" vehsPerHour="86.44492842140264" departLane="free"/>
  <flow id="JF148288" begin="360" fromJunction="J4" toJunction="J3" end="420" vehsPerHour="209.89392842228003" departLane="free"/>
  <flow id="JF148289" begin="360" fromJunction="J4" toJunction="J0" end="420" vehsPerHour="51.30667727340798" departLane="free"/>
  <flow id="JF148290" begin="420" fromJunction="J3" toJunction="J0" end="480" vehsPerHour="49.13814220333996" departLane="free"/>
  <flow id="JF148291" begin="420" fromJunction="J0" toJunction="J3" end="480" vehsPerHour="5.290711986626434" departLane="free"/>
  <flow id="JF148292" begin="420" fromJunction="J3" toJunction="J5" end="480" vehsPerHour="307.6803601645115" departLane="free"/>
  <flow id="JF148293" begin="420" fromJunction="J3" toJunction="J7" end="480" vehsPerHour="364.4741251673232" departLane="free"/>
  <flow id="JF148294" begin="420" fromJunction="J3" toJunction="J6" end="480" vehsPerHour="350.8715784241589" departLane="free"/>
  <flow id="JF148295" begin="420" fromJunction="J3" toJunction="J4" end="480" vehsPerHour="508.52768173522975" departLane="free"/>
  <flow id="JF148296" begin="420" fromJunction="J0" toJunction="J5" end="480" vehsPerHour="170.58262262750986" departLane="free"/>
  <flow id="JF148297" begin="420" fromJunction="J0" toJunction="J7" end="480" vehsPerHour="408.8376104565733" departLane="free"/>
  <flow id="JF148298" begin="420" fromJunction="J0" toJunction="J6" end="480" vehsPerHour="350.0348044255908" departLane="free"/>
  <flow id="JF148299" begin="420" fromJunction="J0" toJunction="J4" end="480" vehsPerHour="490.8848126903962" departLane="free"/>
  <flow id="JF148300" begin="480" fromJunction="J3" toJunction="J0" end="540" vehsPerHour="85.76137704812562" departLane="free"/>
  <flow id="JF148301" begin="480" fromJunction="J0" toJunction="J3" end="540" vehsPerHour="30.970286358381564" departLane="free"/>
  <flow id="JF148302" begin="480" fromJunction="J3" toJunction="J5" end="540" vehsPerHour="437.0680696879502" departLane="free"/>
  <flow id="JF148303" begin="480" fromJunction="J3" toJunction="J7" end="540" vehsPerHour="4.945488661471909" departLane="free"/>
  <flow id="JF148304" begin="480" fromJunction="J3" toJunction="J6" end="540" vehsPerHour="69.15585587359942" departLane="free"/>
  <flow id="JF148305" begin="480" fromJunction="J3" toJunction="J4" end="540" vehsPerHour="55.18790480374395" departLane="free"/>
  <flow id="JF148306" begin="480" fromJunction="J0" toJunction="J5" end="540" vehsPerHour="133.59328804418394" departLane="free"/>
  <flow id="JF148307" begin="480" fromJunction="J0" toJunction="J7" end="540" vehsPerHour="472.8315994176209" departLane="free"/>
  <flow id="JF148308" begin="480" fromJunction="J0" toJunction="J6" end="540" vehsPerHour="146.4597766723008" departLane="free"/>
  <flow id="JF148309" begin="480" fromJunction="J0" toJunction="J4" end="540" vehsPerHour="447.2169413177039" departLane="free"/>
  <flow id="JF148310" begin="540" fromJunction="J3" toJunction="J0" end="600" vehsPerHour="136.86512532365836" departLane="free"/>
  <flow id="JF148311" begin="540" fromJunction="J0" toJunction="J3" end="600" vehsPerHour="67.04965097690975" departLane="free"/>
  <flow id="JF148312" begin="540" fromJunction="J3" toJunction="J5" end="600" vehsPerHour="59.071725774288474" departLane="free"/>
  <flow id="JF148313" begin="540" fromJunction="J3" toJunction="J7" end="600" vehsPerHour="157.03142140134034" departLane="free"/>
  <flow id="JF148314" begin="540" fromJunction="J3" toJunction="J6" end="600" vehsPerHour="213.87541309529266" departLane="free"/>
  <flow id="JF148315" begin="540" fromJunction="J3" toJunction="J4" end="600" vehsPerHour="237.70526016914803" departLane="free"/>
  <flow id="JF148316" begin="540" fromJunction="J0" toJunction="J5" end="600" vehsPerHour="210.80155159790752" departLane="free"/>
  <flow id="JF148317" begin="540" fromJunction="J0" toJunction="J7" end="600" vehsPerHour="92.62920575291655" departLane="free"/>
  <flow id="JF148318" begin="540" fromJunction="J0" toJunction="J6" end="600" vehsPerHour="47.14233979710388" departLane="free"/>
  <flow id="JF148319" begin="540" fromJunction="J0" toJunction="J4" end="600" vehsPerHour="58.48060628095865" departLane="free"/>
  <flow id="JF148320" begin="540" fromJunction="J5" toJunction="J7" end="600" vehsPerHour="21.352115485537492" departLane="free"/>
  <flow id="JF148321" begin="540" fromJunction="J5" toJunction="J6" end="600" vehsPerHour="18.527733260922982" departLane="free"/>
  <flow id="JF148322" begin="540" fromJunction="J5" toJunction="J4" end="600" vehsPerHour="39.53251543266984" departLane="free"/>
  <flow id="JF148323" begin="540" fromJunction="J7" toJunction="J5" end="600" vehsPerHour="16.4362987489057" departLane="free"/>
  <flow id="JF148324" begin="540" fromJunction="J7" toJunction="J6" end="600" vehsPerHour="31.121896341601463" departLane="free"/>
  <flow id="JF148325" begin="540" fromJunction="J7" toJunction="J4" end="600" vehsPerHour="3.187477642398237" departLane="free"/>
  <flow id="JF148326" begin="540" fromJunction="J6" toJunction="J5" end="600" vehsPerHour="35.86567844046945" departLane="free"/>
  <flow id="JF148327" begin="540" fromJunction="J6" toJunction="J7" end="600" vehsPerHour="7.001992305408063" departLane="free"/>
  <flow id="JF148328" begin="540" fromJunction="J6" toJunction="J4" end="600" vehsPerHour="47.667189181768286" departLane="free"/>
  <flow id="JF148329" begin="540" fromJunction="J4" toJunction="J5" end="600" vehsPerHour="12.186245359501614" departLane="free"/>
  <flow id="JF148330" begin="540" fromJunction="J4" toJunction="J7" end="600" vehsPerHour="28.108010694501516" departLane="free"/>
  <flow id="JF148331" begin="540" fromJunction="J4" toJunction="J6" end="600" vehsPerHour="9.372992303049733" departLane="free"/>
  <flow id="JF148332" begin="540" fromJunction="J5" toJunction="J3" end="600" vehsPerHour="117.72613443359302" departLane="free"/>
  <flow id="JF148333" begin="540" fromJunction="J5" toJunction="J0" end="600" vehsPerHour="58.600176805608164" departLane="free"/>
  <flow id="JF148334" begin="540" fromJunction="J7" toJunction="J3" end="600" vehsPerHour="66.54516823612649" departLane="free"/>
  <flow id="JF148335" begin="540" fromJunction="J7" toJunction="J0" end="600" vehsPerHour="172.37591946492532" departLane="free"/>
  <flow id="JF148336" begin="540" fromJunction="J6" toJunction="J3" end="600" vehsPerHour="107.14387306499334" departLane="free"/>
  <flow id="JF148337" begin="540" fromJunction="J6" toJunction="J0" end="600" vehsPerHour="89.20953244319578" departLane="free"/>
  <flow id="JF148338" begin="540" fromJunction="J4" toJunction="J3" end="600" vehsPerHour="1.2597822504006195" departLane="free"/>
  <flow id="JF148339" begin="540" fromJunction="J4" toJunction="J0" end="600" vehsPerHour="113.65192555832688" departLane="free"/>
  <flow id="JF148340" begin="600" fromJunction="J3" toJunction="J0" end="660" vehsPerHour="126.24383238808215" departLane="free"/>
  <flow id="JF148341" begin="600" fromJunction="J0" toJunction="J3" end="660" vehsPerHour="61.21837760300656" departLane="free"/>
  <flow id="JF148342" begin="600" fromJunction="J3" toJunction="J5" end="660" vehsPerHour="8.65131311193272" departLane="free"/>
  <flow id="JF148343" begin="600" fromJunction="J3" toJunction="J7" end="660" vehsPerHour="81.98686939280616" departLane="free"/>
  <flow id="JF148344" begin="600" fromJunction="J3" toJunction="J6" end="660" vehsPerHour="129.55644568160815" departLane="free"/>
  <flow id="JF148345" begin="600" fromJunction="J3" toJunction="J4" end="660" vehsPerHour="31.33361537511252" departLane="free"/>
  <flow id="JF148346" begin="600" fromJunction="J0" toJunction="J5" end="660" vehsPerHour="141.22495473359405" departLane="free"/>
  <flow id="JF148347" begin="600" fromJunction="J0" toJunction="J7" end="660" vehsPerHour="190.41340132873887" departLane="free"/>
  <flow id="JF148348" begin="600" fromJunction="J0" toJunction="J6" end="660" vehsPerHour="158.88377791127743" departLane="free"/>
  <flow id="JF148349" begin="600" fromJunction="J0" toJunction="J4" end="660" vehsPerHour="105.04729800268663" departLane="free"/>
  <flow id="JF148350" begin="600" fromJunction="J5" toJunction="J7" end="660" vehsPerHour="6.0727736309541545" departLane="free"/>
  <flow id="JF148351" begin="600" fromJunction="J5" toJunction="J6" end="660" vehsPerHour="7.4394804451112755" departLane="free"/>
  <flow id="JF148352" begin="600" fromJunction="J5" toJunction="J4" end="660" vehsPerHour="63.976352998532064" departLane="free"/>
  <flow id="JF148353" begin="600" fromJunction="J7" toJunction="J5" end="660" vehsPerHour="15.379139535011303" departLane="free"/>
  <flow id="JF148354" begin="600" fromJunction="J7" toJunction="J6" end="660" vehsPerHour="45.82920572162587" departLane="free"/>
  <flow id="JF148355" begin="600" fromJunction="J7" toJunction="J4" end="660" vehsPerHour="43.46552308860113" departLane="free"/>
  <flow id="JF148356" begin="600" fromJunction="J6" toJunction="J5" end="660" vehsPerHour="63.03775459704887" departLane="free"/>
  <flow id="JF148357" begin="600" fromJunction="J6" toJunction="J7" end="660" vehsPerHour="20.754142353179418" departLane="free"/>
  <flow id="JF148358" begin="600" fromJunction="J6" toJunction="J4" end="660" vehsPerHour="57.27266454610448" departLane="free"/>
  <flow id="JF148359" begin="600" fromJunction="J4" toJunction="J5" end="660" vehsPerHour="3.6966274806066024" departLane="free"/>
  <flow id="JF148360" begin="600" fromJunction="J4" toJunction="J7" end="660" vehsPerHour="32.45138204347288" departLane="free"/>
  <flow id="JF148361" begin="600" fromJunction="J4" toJunction="J6" end="660" vehsPerHour="22.26188305475481" departLane="free"/>
  <flow id="JF148362" begin="600" fromJunction="J5" toJunction="J3" end="660" vehsPerHour="6.0449465953426165" departLane="free"/>
  <flow id="JF148363" begin="600" fromJunction="J5" toJunction="J0" end="660" vehsPerHour="207.84731194011653" departLane="free"/>
  <flow id="JF148364" begin="600" fromJunction="J7" toJunction="J3" end="660" vehsPerHour="206.26295163344213" departLane="free"/>
  <flow id="JF148365" begin="600" fromJunction="J7" toJunction="J0" end="660" vehsPerHour="168.19744628910348" departLane="free"/>
  <flow id="JF148366" begin="600" fromJunction="J6" toJunction="J3" end="660" vehsPerHour="228.17957182283783" departLane="free"/>
  <flow id="JF148367" begin="600" fromJunction="J6" toJunction="J0" end="660" vehsPerHour="207.13562847391512" departLane="free"/>