<?xml version="1.0" encoding="UTF-8"?>

<!-- generated on 2025-03-15 18:47:23 by Eclipse SUMO netedit Version 1.20.0
-->

<routes xmlns:xsi="http://www.w3.org/2001/XMLSchema-instance" xsi:noNamespaceSchemaLocation="http://sumo.dlr.de/xsd/routes_file.xsd">
    <!-- VTypes -->
    <vType id="DEFAULT_RAILTYPE" length="20.00" vClass="rail"/>
    <!-- Vehicles, persons and containers (sorted by depart) -->
    <flow id="f_0" type="DEFAULT_RAILTYPE" begin="0.00" fromJunction="J1" toJunction="J6" end="3600.00" vehsPerHour="1800"/>
    <flow id="f_1" type="DEFAULT_RAILTYPE" begin="0.00" fromJunction="J8" toJunction="J7" end="3600.00" vehsPerHour="1800"/>
</routes>
