<?xml version="1.0" encoding="UTF-8"?>
<routes xmlns:xsi="http://www.w3.org/2001/XMLSchema-instance" xsi:noNamespaceSchemaLocation="http://sumo.dlr.de/xsd/routes_file.xsd">
  <flow id="JF6972" begin="0" fromJunction="J2" toJunction="J3" end="60" vehsPerHour="135.61577916698528"/>
  <flow id="JF6973" begin="0" fromJunction="J3" toJunction="J0" end="60" vehsPerHour="56.097266488300406"/>
  <flow id="JF6974" begin="0" fromJunction="J3" toJunction="J2" end="60" vehsPerHour="64.19066181259765"/>
  <flow id="JF6975" begin="0" fromJunction="J3" toJunction="J4" end="60" vehsPerHour="72.98550977296989"/>
  <flow id="JF6976" begin="0" fromJunction="J4" toJunction="J0" end="60" vehsPerHour="91.09256841785516"/>
  <flow id="JF6977" begin="0" fromJunction="J4" toJunction="J2" end="60" vehsPerHour="8.307653074874393"/>
  <flow id="JF6978" begin="0" fromJunction="J4" toJunction="J3" end="60" vehsPerHour="118.44743136809883"/>
  <flow id="JF6979" begin="60" fromJunction="J0" toJunction="J3" end="120" vehsPerHour="76.63378061967445"/>
  <flow id="JF6980" begin="60" fromJunction="J0" toJunction="J4" end="120" vehsPerHour="70.39025333403464"/>
  <flow id="JF6981" begin="60" fromJunction="J2" toJunction="J0" end="120" vehsPerHour="18.720016871066814"/>
  <flow id="JF6982" begin="60" fromJunction="J3" toJunction="J2" end="120" vehsPerHour="46.1647417582482"/>
  <flow id="JF6983" begin="60" fromJunction="J3" toJunction="J4" end="120" vehsPerHour="18.60031831859161"/>
  <flow id="JF6984" begin="60" fromJunction="J4" toJunction="J0" end="120" vehsPerHour="120.25007705854975"/>
  <flow id="JF6985" begin="60" fromJunction="J4" toJunction="J3" end="120" vehsPerHour="68.38385350327778"/>
  <flow id="JF6986" begin="120" fromJunction="J0" toJunction="J2" end="180" vehsPerHour="118.48876250037769"/>
  <flow id="JF6987" begin="120" fromJunction="J0" toJunction="J3" end="180" vehsPerHour="62.967819588478875"/>
  <flow id="JF6988" begin="120" fromJunction="J0" toJunction="J4" end="180" vehsPerHour="132.2430386625569"/>
  <flow id="JF6989" begin="120" fromJunction="J2" toJunction="J0" end="180" vehsPerHour="121.77040766628903"/>
  <flow id="JF6990" begin="120" fromJunction="J2" toJunction="J3" end="180" vehsPerHour="56.1998347421682"/>
  <flow id="JF6991" begin="120" fromJunction="J2" toJunction="J4" end="180" vehsPerHour="85.36249091398642"/>
  <flow id="JF6992" begin="120" fromJunction="J3" toJunction="J0" end="180" vehsPerHour="61.96351337803156"/>
  <flow id="JF6993" begin="120" fromJunction="J3" toJunction="J2" end="180" vehsPerHour="31.32266120881934"/>
  <flow id="JF6994" begin="120" fromJunction="J4" toJunction="J0" end="180" vehsPerHour="24.65570058569374"/>
  <flow id="JF6995" begin="120" fromJunction="J4" toJunction="J2" end="180" vehsPerHour="79.99604867116928"/>
  <flow id="JF6996" begin="120" fromJunction="J4" toJunction="J3" end="180" vehsPerHour="7.111366514087348"/>
  <flow id="JF6997" begin="180" fromJunction="J0" toJunction="J2" end="240" vehsPerHour="37.91940643223901"/>
  <flow id="JF6998" begin="180" fromJunction="J0" toJunction="J4" end="240" vehsPerHour="19.918692312639806"/>
  <flow id="JF6999" begin="180" fromJunction="J2" toJunction="J3" end="240" vehsPerHour="60.97128418668954"/>
  <flow id="JF7000" begin="180" fromJunction="J2" toJunction="J4" end="240" vehsPerHour="105.23300817390488"/>
  <flow id="JF7001" begin="180" fromJunction="J3" toJunction="J0" end="240" vehsPerHour="94.32747071822894"/>
  <flow id="JF7002" begin="180" fromJunction="J3" toJunction="J2" end="240" vehsPerHour="73.27891196500688"/>
  <flow id="JF7003" begin="180" fromJunction="J4" toJunction="J0" end="240" vehsPerHour="16.34221563101096"/>
  <flow id="JF7004" begin="180" fromJunction="J4" toJunction="J2" end="240" vehsPerHour="114.77770081774902"/>
  <flow id="JF7005" begin="180" fromJunction="J4" toJunction="J3" end="240" vehsPerHour="12.705704529920443"/>
  <flow id="JF7006" begin="240" fromJunction="J2" toJunction="J3" end="300" vehsPerHour="21.611687080435807"/>
  <flow id="JF7007" begin="240" fromJunction="J2" toJunction="J4" end="300" vehsPerHour="108.14620769649889"/>
  <flow id="JF7008" begin="240" fromJunction="J3" toJunction="J0" end="300" vehsPerHour="74.36333132470406"/>
  <flow id="JF7009" begin="240" fromJunction="J3" toJunction="J2" end="300" vehsPerHour="56.93674164224472"/>
  <flow id="JF7010" begin="240" fromJunction="J3" toJunction="J4" end="300" vehsPerHour="36.11707195638776"/>
  <flow id="JF7011" begin="240" fromJunction="J4" toJunction="J3" end="300" vehsPerHour="11.702585432806746"/>
  <flow id="JF7012" begin="300" fromJunction="J0" toJunction="J2" end="360" vehsPerHour="41.71209742215686"/>
  <flow id="JF7013" begin="300" fromJunction="J0" toJunction="J3" end="360" vehsPerHour="118.91146099220916"/>
  <flow id="JF7014" begin="300" fromJunction="J0" toJunction="J4" end="360" vehsPerHour="102.5593673536786"/>
  <flow id="JF7015" begin="300" fromJunction="J2" toJunction="J0" end="360" vehsPerHour="13.871750753260976"/>
  <flow id="JF7016" begin="300" fromJunction="J2" toJunction="J3" end="360" vehsPerHour="24.15790130787158"/>
  <flow id="JF7017" begin="300" fromJunction="J2" toJunction="J4" end="360" vehsPerHour="33.95618285616165"/>
  <flow id="JF7018" begin="300" fromJunction="J3" toJunction="J0" end="360" vehsPerHour="80.31003170880412"/>
  <flow id="JF7019" begin="300" fromJunction="J3" toJunction="J2" end="360" vehsPerHour="100.71375516996405"/>
  <flow id="JF7020" begin="300" fromJunction="J3" toJunction="J4" end="360" vehsPerHour="112.74569380527751"/>
  <flow id="JF7021" begin="300" fromJunction="J4" toJunction="J2" end="360" vehsPerHour="73.94233446138688"/>
  <flow id="JF7022" begin="300" fromJunction="J4" toJunction="J3" end="360" vehsPerHour="112.7814920767785"/>
  <flow id="JF7023" begin="360" fromJunction="J0" toJunction="J4" end="420" vehsPerHour="83.8271371263295"/>
  <flow id="JF7024" begin="360" fromJunction="J2" toJunction="J0" end="420" vehsPerHour="20.454197367101198"/>
  <flow id="JF7025" begin="360" fromJunction="J2" toJunction="J3" end="420" vehsPerHour="132.68750322936074"/>
  <flow id="JF7026" begin="360" fromJunction="J3" toJunction="J0" end="420" vehsPerHour="74.29622549438983"/>
  <flow id="JF7027" begin="360" fromJunction="J3" toJunction="J2" end="420" vehsPerHour="57.079076769231584"/>
  <flow id="JF7028" begin="360" fromJunction="J3" toJunction="J4" end="420" vehsPerHour="0.0010245180268384057"/>
  <flow id="JF7029" begin="360" fromJunction="J4" toJunction="J0" end="420" vehsPerHour="94.06329324560932"/>
  <flow id="JF7030" begin="360" fromJunction="J4" toJunction="J2" end="420" vehsPerHour="18.63848572027703"/>
  <flow id="JF7031" begin="420" fromJunction="J0" toJunction="J2" end="480" vehsPerHour="130.66302223264918"/>
  <flow id="JF7032" begin="420" fromJunction="J0" toJunction="J3" end="480" vehsPerHour="16.20355550374704"/>
  <flow id="JF7033" begin="420" fromJunction="J0" toJunction="J4" end="480" vehsPerHour="71.3965913130299"/>
  <flow id="JF7034" begin="420" fromJunction="J2" toJunction="J0" end="480" vehsPerHour="82.41955183883523"/>
  <flow id="JF7035" begin="420" fromJunction="J2" toJunction="J3" end="480" vehsPerHour="98.20685329633791"/>
  <flow id="JF7036" begin="420" fromJunction="J2" toJunction="J4" end="480" vehsPerHour="118.45869146924309"/>
  <flow id="JF7037" begin="420" fromJunction="J3" toJunction="J0" end="480" vehsPerHour="49.91925898602306"/>
  <flow id="JF7038" begin="420" fromJunction="J3" toJunction="J2" end="480" vehsPerHour="33.89143208885365"/>
  <flow id="JF7039" begin="420" fromJunction="J3" toJunction="J4" end="480" vehsPerHour="74.76981722104914"/>
  <flow id="JF7040" begin="420" fromJunction="J4" toJunction="J0" end="480" vehsPerHour="40.19730947324284"/>
  <flow id="JF7041" begin="420" fromJunction="J4" toJunction="J2" end="480" vehsPerHour="16.72582275178143"/>
  <flow id="JF7042" begin="480" fromJunction="J0" toJunction="J2" end="540" vehsPerHour="89.15207797150538"/>
  <flow id="JF7043" begin="480" fromJunction="J0" toJunction="J3" end="540" vehsPerHour="25.400456307812924"/>
  <flow id="JF7044" begin="480" fromJunction="J0" toJunction="J4" end="540" vehsPerHour="13.021428748503302"/>
  <flow id="JF7045" begin="480" fromJunction="J2" toJunction="J0" end="540" vehsPerHour="125.9845391866861"/>
  <flow id="JF7046" begin="480" fromJunction="J2" toJunction="J3" end="540" vehsPerHour="127.34125405845401"/>
  <flow id="JF7047" begin="480" fromJunction="J2" toJunction="J4" end="540" vehsPerHour="89.23860715402395"/>
  <flow id="JF7048" begin="480" fromJunction="J3" toJunction="J0" end="540" vehsPerHour="118.09753303413765"/>
  <flow id="JF7049" begin="480" fromJunction="J3" toJunction="J2" end="540" vehsPerHour="91.19939905174128"/>
  <flow id="JF7050" begin="480" fromJunction="J3" toJunction="J4" end="540" vehsPerHour="136.02106588533846"/>
  <flow id="JF7051" begin="480" fromJunction="J4" toJunction="J0" end="540" vehsPerHour="93.87754325394938"/>
  <flow id="JF7052" begin="480" fromJunction="J4" toJunction="J3" end="540" vehsPerHour="58.97578871851255"/>
  <flow id="JF7053" begin="540" fromJunction="J0" toJunction="J2" end="600" vehsPerHour="116.73033249876156"/>
  <flow id="JF7054" begin="540" fromJunction="J0" toJunction="J4" end="600" vehsPerHour="117.74751530409293"/>
  <flow id="JF7055" begin="540" fromJunction="J2" toJunction="J0" end="600" vehsPerHour="39.03154675985595"/>
  <flow id="JF7056" begin="540" fromJunction="J2" toJunction="J4" end="600" vehsPerHour="112.91163221962317"/>
  <flow id="JF7057" begin="540" fromJunction="J3" toJunction="J0" end="600" vehsPerHour="90.98474550435866"/>
  <flow id="JF7058" begin="540" fromJunction="J3" toJunction="J2" end="600" vehsPerHour="80.19000536123966"/>
  <flow id="JF7059" begin="540" fromJunction="J4" toJunction="J0" end="600" vehsPerHour="43.08448885769166"/>
  <flow id="JF7060" begin="540" fromJunction="J4" toJunction="J2" end="600" vehsPerHour="80.94275619222242"/>
  <flow id="JF7061" begin="540" fromJunction="J4" toJunction="J3" end="600" vehsPerHour="55.308108183089644"/>
  <flow id="JF7062" begin="600" fromJunction="J0" toJunction="J2" end="660" vehsPerHour="46.78389457302336"/>
  <flow id="JF7063" begin="600" fromJunction="J0" toJunction="J3" end="660" vehsPerHour="87.83131173860434"/>
  <flow id="JF7064" begin="600" fromJunction="J0" toJunction="J4" end="660" vehsPerHour="74.38757555572393"/>
  <flow id="JF7065" begin="600" fromJunction="J2" toJunction="J4" end="660" vehsPerHour="17.09699653378755"/>
  <flow id="JF7066" begin="600" fromJunction="J3" toJunction="J2" end="660" vehsPerHour="87.44522008944271"/>
  <flow id="JF7067" begin="600" fromJunction="J3" toJunction="J4" end="660" vehsPerHour="88.31225662760727"/>
  <flow id="JF7068" begin="600" fromJunction="J4" toJunction="J3" end="660" vehsPerHour="49.962647092207106"/>
  <flow id="JF7069" begin="660" fromJunction="J0" toJunction="J2" end="720" vehsPerHour="67.45032981973131"/>
  <flow id="JF7070" begin="660" fromJunction="J0" toJunction="J3" end="720" vehsPerHour="34.9541292063124"/>
  <flow id="JF7071" begin="660" fromJunction="J0" toJunction="J4" end="720" vehsPerHour="52.36985470371793"/>
  <flow id="JF7072" begin="660" fromJunction="J2" toJunction="J4" end="720" vehsPerHour="118.41939419396145"/>
  <flow id="JF7073" begin="660" fromJunction="J4" toJunction="J2" end="720" vehsPerHour="30.26392513834156"/>
  <flow id="JF7074" begin="660" fromJunction="J4" toJunction="J3" end="720" vehsPerHour="70.03886743407813"/>
  <flow id="JF7075" begin="720" fromJunction="J0" toJunction="J3" end="780" vehsPerHour="94.15540124221117"/>
  <flow id="JF7076" begin="720" fromJunction="J0" toJunction="J4" end="780" vehsPerHour="65.80380087902267"/>
  <flow id="JF7077" begin="720" fromJunction="J2" toJunction="J0" end="780" vehsPerHour="67.34729337734184"/>
  <flow id="JF7078" begin="720" fromJunction="J2" toJunction="J3" end="780" vehsPerHour="136.85194100734122"/>
  <flow id="JF7079" begin="720" fromJunction="J2" toJunction="J4" end="780" vehsPerHour="33.578416195306175"/>
  <flow id="JF7080" begin="720" fromJunction="J3" toJunction="J2" end="780" vehsPerHour="93.66508933276222"/>
  <flow id="JF7081" begin="720" fromJunction="J3" toJunction="J4" end="780" vehsPerHour="97.98243739145134"/>
  <flow id="JF7082" begin="720" fromJunction="J4" toJunction="J0" end="780" vehsPerHour="24.071712525267422"/>
  <flow id="JF7083" begin="720" fromJunction="J4" toJunction="J3" end="780" vehsPerHour="88.58429868814349"/>
  <flow id="JF7084" begin="780" fromJunction="J0" toJunction="J2" end="840" vehsPerHour="96.48752536140734"/>
  <flow id="JF7085" begin="780" fromJunction="J0" toJunction="J3" end="840" vehsPerHour="101.34552028309999"/>
  <flow id="JF7086" begin="780" fromJunction="J0" toJunction="J4" end="840" vehsPerHour="48.84605954261301"/>
  <flow id="JF7087" begin="780" fromJunction="J2" toJunction="J0" end="840" vehsPerHour="27.449340361851693"/>
  <flow id="JF7088" begin="780" fromJunction="J2" toJunction="J3" end="840" vehsPerHour="114.92862468004442"/>
  <flow id="JF7089" begin="780" fromJunction="J3" toJunction="J0" end="840" vehsPerHour="83.24892915227746"/>
  <flow id="JF7090" begin="780" fromJunction="J3" toJunction="J2" end="840" vehsPerHour="136.01801546762397"/>
  <flow id="JF7091" begin="780" fromJunction="J3" toJunction="J4" end="840" vehsPerHour="40.47473044346535"/>
  <flow id="JF7092" begin="780" fromJunction="J4" toJunction="J0" end="840" vehsPerHour="108.19801630650201"/>
  <flow id="JF7093" begin="780" fromJunction="J4" toJunction="J2" end="840" vehsPerHour="20.112796525233517"/>
  <flow id="JF7094" begin="780" fromJunction="J4" toJunction="J3" end="840" vehsPerHour="18.315940158656968"/>
  <flow id="JF7095" begin="840" fromJunction="J0" toJunction="J4" end="900" vehsPerHour="49.09678534346035"/>
  <flow id="JF7096" begin="840" fromJunction="J2" toJunction="J0" end="900" vehsPerHour="104.98731631845952"/>
  <flow id="JF7097" begin="840" fromJunction="J2" toJunction="J4" end="900" vehsPerHour="9.124029768076689"/>
  <flow id="JF7098" begin="840" fromJunction="J3" toJunction="J0" end="900" vehsPerHour="104.09600921195783"/>
  <flow id="JF7099" begin="840" fromJunction="J3" toJunction="J2" end="900" vehsPerHour="48.883902630220966"/>
  <flow id="JF7100" begin="840" fromJunction="J4" toJunction="J0" end="900" vehsPerHour="62.33439902639632"/>
  <flow id="JF7101" begin="840" fromJunction="J4" toJunction="J2" end="900" vehsPerHour="31.25762670500613"/>
  <flow id="JF7102" begin="840" fromJunction="J4" toJunction="J3" end="900" vehsPerHour="102.66947689466642"/>
  <flow id="JF7103" begin="900" fromJunction="J0" toJunction="J3" end="960" vehsPerHour="103.0372842022535"/>
  <flow id="JF7104" begin="900" fromJunction="J0" toJunction="J4" end="960" vehsPerHour="15.663472341450916"/>
  <flow id="JF7105" begin="900" fromJunction="J2" toJunction="J0" end="960" vehsPerHour="119.2118813094707"/>
  <flow id="JF7106" begin="900" fromJunction="J2" toJunction="J3" end="960" vehsPerHour="107.91947884403153"/>
  <flow id="JF7107" begin="900" fromJunction="J3" toJunction="J2" end="960" vehsPerHour="85.94099917190405"/>
  <flow id="JF7108" begin="900" fromJunction="J3" toJunction="J4" end="960" vehsPerHour="133.58086901113393"/>
  <flow id="JF7109" begin="900" fromJunction="J4" toJunction="J0" end="960" vehsPerHour="12.416550594488008"/>
  <flow id="JF7110" begin="900" fromJunction="J4" toJunction="J3" end="960" vehsPerHour="116.9945996803741"/>
  <flow id="JF7111" begin="960" fromJunction="J0" toJunction="J2" end="1020" vehsPerHour="87.85739548819136"/>
  <flow id="JF7112" begin="960" fromJunction="J2" toJunction="J0" end="1020" vehsPerHour="4.683799960958145"/>
  <flow id="JF7113" begin="960" fromJunction="J2" toJunction="J4" end="1020" vehsPerHour="76.603037686294"/>
  <flow id="JF7114" begin="960" fromJunction="J3" toJunction="J0" end="1020" vehsPerHour="127.05156708162528"/>
  <flow id="JF7115" begin="960" fromJunction="J3" toJunction="J2" end="1020" vehsPerHour="70.96631082727207"/>
  <flow id="JF7116" begin="960" fromJunction="J3" toJunction="J4" end="1020" vehsPerHour="115.97600618056367"/>
  <flow id="JF7117" begin="960" fromJunction="J4" toJunction="J0" end="1020" vehsPerHour="11.532563313705468"/>
  <flow id="JF7118" begin="960" fromJunction="J4" toJunction="J3" end="1020" vehsPerHour="70.67962787058916"/>
  <flow id="JF7119" begin="1020" fromJunction="J0" toJunction="J2" end="1080" vehsPerHour="121.77622671553408"/>
  <flow id="JF7120" begin="1020" fromJunction="J2" toJunction="J0" end="1080" vehsPerHour="135.18504745189384"/>
  <flow id="JF7121" begin="1020" fromJunction="J3" toJunction="J0" end="1080" vehsPerHour="67.16970444498854"/>
  <flow id="JF7122" begin="1020" fromJunction="J3" toJunction="J2" end="1080" vehsPerHour="107.68208276889735"/>
  <flow id="JF7123" begin="1020" fromJunction="J3" toJunction="J4" end="1080" vehsPerHour="51.046368307190036"/>
  <flow id="JF7124" begin="1020" fromJunction="J4" toJunction="J0" end="1080" vehsPerHour="72.47598284228418"/>
  <flow id="JF7125" begin="1020" fromJunction="J4" toJunction="J2" end="1080" vehsPerHour="6.733147054010257"/>
  <flow id="JF7126" begin="1020" fromJunction="J4" toJunction="J3" end="1080" vehsPerHour="53.19221511122304"/>
  <flow id="JF7127" begin="1080" fromJunction="J0" toJunction="J2" end="1140" vehsPerHour="49.80426200284265"/>
  <flow id="JF7128" begin="1080" fromJunction="J0" toJunction="J3" end="1140" vehsPerHour="28.11535183031003"/>
  <flow id="JF7129" begin="1080" fromJunction="J2" toJunction="J3" end="1140" vehsPerHour="59.94319474530525"/>
  <flow id="JF7130" begin="1080" fromJunction="J2" toJunction="J4" end="1140" vehsPerHour="134.8286408425861"/>
  <flow id="JF7131" begin="1080" fromJunction="J3" toJunction="J0" end="1140" vehsPerHour="30.861577233690586"/>
  <flow id="JF7132" begin="1080" fromJunction="J4" toJunction="J2" end="1140" vehsPerHour="16.086812815529125"/>
  <flow id="JF7133" begin="1080" fromJunction="J4" toJunction="J3" end="1140" vehsPerHour="123.71139972700328"/>
  <flow id="JF7134" begin="1140" fromJunction="J0" toJunction="J2" end="1200" vehsPerHour="103.56192425206257"/>
  <flow id="JF7135" begin="1140" fromJunction="J0" toJunction="J3" end="1200" vehsPerHour="29.49879309105793"/>
  <flow id="JF7136" begin="1140" fromJunction="J2" toJunction="J0" end="1200" vehsPerHour="106.39605404735283"/>
  <flow id="JF7137" begin="1140" fromJunction="J2" toJunction="J4" end="1200" vehsPerHour="102.87770067942715"/>
  <flow id="JF7138" begin="1140" fromJunction="J3" toJunction="J0" end="1200" vehsPerHour="111.03119100132314"/>
  <flow id="JF7139" begin="1140" fromJunction="J3" toJunction="J2" end="1200" vehsPerHour="44.72362101165502"/>
  <flow id="JF7140" begin="1140" fromJunction="J3" toJunction="J4" end="1200" vehsPerHour="75.18752653914073"/>
  <flow id="JF7141" begin="1140" fromJunction="J4" toJunction="J0" end="1200" vehsPerHour="110.58691312993892"/>
  <flow id="JF7142" begin="1200" fromJunction="J0" toJunction="J2" end="1260" vehsPerHour="102.28529588228096"/>
  <flow id="JF7143" begin="1200" fromJunction="J0" toJunction="J3" end="1260" vehsPerHour="31.392777691220275"/>
  <flow id="JF7144" begin="1200" fromJunction="J0" toJunction="J4" end="1260" vehsPerHour="125.50777000080278"/>
  <flow id="JF7145" begin="1200" fromJunction="J2" toJunction="J0" end="1260" vehsPerHour="11.95528182938575"/>
  <flow id="JF7146" begin="1200" fromJunction="J2" toJunction="J3" end="1260" vehsPerHour="89.60580300808498"/>
  <flow id="JF7147" begin="1200" fromJunction="J2" toJunction="J4" end="1260" vehsPerHour="74.90440684623925"/>
  <flow id="JF7148" begin="1200" fromJunction="J3" toJunction="J4" end="1260" vehsPerHour="127.99521090281172"/>
  <flow id="JF7149" begin="1200" fromJunction="J4" toJunction="J0" end="1260" vehsPerHour="63.91334749942959"/>
  <flow id="JF7150" begin="1200" fromJunction="J4" toJunction="J2" end="1260" vehsPerHour="40.302601607829736"/>
  <flow id="JF7151" begin="1200" fromJunction="J4" toJunction="J3" end="1260" vehsPerHour="53.985489734447704"/>
  <flow id="JF7152" begin="1260" fromJunction="J0" toJunction="J2" end="1320" vehsPerHour="59.48813990279445"/>
  <flow id="JF7153" begin="1260" fromJunction="J0" toJunction="J3" end="1320" vehsPerHour="12.918100246523885"/>
  <flow id="JF7154" begin="1260" fromJunction="J0" toJunction="J4" end="1320" vehsPerHour="15.64599753503715"/>
  <flow id="JF7155" begin="1260" fromJunction="J2" toJunction="J0" end="1320" vehsPerHour="84.6366292198352"/>
  <flow id="JF7156" begin="1260" fromJunction="J2" toJunction="J3" end="1320" vehsPerHour="51.28806979131094"/>
  <flow id="JF7157" begin="1260" fromJunction="J3" toJunction="J2" end="1320" vehsPerHour="112.24127007788006"/>
  <flow id="JF7158" begin="1260" fromJunction="J3" toJunction="J4" end="1320" vehsPerHour="119.67599453651478"/>
  <flow id="JF7159" begin="1260" fromJunction="J4" toJunction="J2" end="1320" vehsPerHour="65.979893510653"/>
  <flow id="JF7160" begin="1320" fromJunction="J0" toJunction="J2" end="1380" vehsPerHour="8.739692786969291"/>
  <flow id="JF7161" begin="1320" fromJunction="J0" toJunction="J3" end="1380" vehsPerHour="9.329812973712384"/>
  <flow id="JF7162" begin="1320" fromJunction="J0" toJunction="J4" end="1380" vehsPerHour="24.371008882333985"/>
  <flow id="JF7163" begin="1320" fromJunction="J2" toJunction="J3" end="1380" vehsPerHour="122.8629072411824"/>
  <flow id="JF7164" begin="1320" fromJunction="J3" toJunction="J0" end="1380" vehsPerHour="125.0028059579362"/>
  <flow id="JF7165" begin="1320" fromJunction="J3" toJunction="J2" end="1380" vehsPerHour="90.97362953561392"/>
  <flow id="JF7166" begin="1320" fromJunction="J3" toJunction="J4" end="1380" vehsPerHour="105.92911882854747"/>
  <flow id="JF7167" begin="1320" fromJunction="J4" toJunction="J2" end="1380" vehsPerHour="108.71706494242574"/>
  <flow id="JF7168" begin="1320" fromJunction="J4" toJunction="J3" end="1380" vehsPerHour="37.90277110683692"/>
  <flow id="JF7169" begin="1380" fromJunction="J0" toJunction="J2" end="1440" vehsPerHour="89.98598143979036"/>
  <flow id="JF7170" begin="1380" fromJunction="J0" toJunction="J3" end="1440" vehsPerHour="38.35238285324317"/>
  <flow id="JF7171" begin="1380" fromJunction="J0" toJunction="J4" end="1440" vehsPerHour="74.71635994402524"/>
  <flow id="JF7172" begin="1380" fromJunction="J2" toJunction="J0" end="1440" vehsPerHour="5.817204752439815"/>
  <flow id="JF7173" begin="1380" fromJunction="J2" toJunction="J3" end="1440" vehsPerHour="111.63312554222398"/>
  <flow id="JF7174" begin="1380" fromJunction="J3" toJunction="J2" end="1440" vehsPerHour="22.529586414751478"/>
  <flow id="JF7175" begin="1380" fromJunction="J4" toJunction="J3" end="1440" vehsPerHour="45.44631147442202"/>
  <flow id="JF7176" begin="1440" fromJunction="J0" toJunction="J3" end="1500" vehsPerHour="137.35638949816507"/>
  <flow id="JF7177" begin="1440" fromJunction="J2" toJunction="J0" end="1500" vehsPerHour="4.263022340040246"/>
  <flow id="JF7178" begin="1440" fromJunction="J2" toJunction="J3" end="1500" vehsPerHour="112.4622420477568"/>
  <flow id="JF7179" begin="1440" fromJunction="J2" toJunction="J4" end="1500" vehsPerHour="63.469776990217234"/>
  <flow id="JF7180" begin="1440" fromJunction="J3" toJunction="J0" end="1500" vehsPerHour="120.64459906116683"/>
  <flow id="JF7181" begin="1440" fromJunction="J3" toJunction="J2" end="1500" vehsPerHour="75.40377654184884"/>
  <flow id="JF7182" begin="1440" fromJunction="J3" toJunction="J4" end="1500" vehsPerHour="110.2896804052764"/>
  <flow id="JF7183" begin="1440" fromJunction="J4" toJunction="J0" end="1500" vehsPerHour="129.74921346869894"/>
  <flow id="JF7184" begin="1440" fromJunction="J4" toJunction="J2" end="1500" vehsPerHour="132.87863852646487"/>
  <flow id="JF7185" begin="1440" fromJunction="J4" toJunction="J3" end="1500" vehsPerHour="59.16113335922711"/>
  <flow id="JF7186" begin="1500" fromJunction="J0" toJunction="J2" end="1560" vehsPerHour="55.787893085744116"/>
  <flow id="JF7187" begin="1500" fromJunction="J2" toJunction="J0" end="1560" vehsPerHour="56.65592868617577"/>
  <flow id="JF7188" begin="1500" fromJunction="J2" toJunction="J3" end="1560" vehsPerHour="105.29720855637312"/>
  <flow id="JF7189" begin="1500" fromJunction="J3" toJunction="J0" end="1560" vehsPerHour="122.17619680015551"/>
  <flow id="JF7190" begin="1500" fromJunction="J3" toJunction="J2" end="1560" vehsPerHour="62.82968157579196"/>
  <flow id="JF7191" begin="1500" fromJunction="J3" toJunction="J4" end="1560" vehsPerHour="136.39471088591415"/>
  <flow id="JF7192" begin="1500" fromJunction="J4" toJunction="J0" end="1560" vehsPerHour="19.668648550070586"/>
  <flow id="JF7193" begin="1500" fromJunction="J4" toJunction="J3" end="1560" vehsPerHour="72.40404735041383"/>
  <flow id="JF7194" begin="1560" fromJunction="J2" toJunction="J0" end="1620" vehsPerHour="29.701348168229508"/>
  <flow id="JF7195" begin="1560" fromJunction="J2" toJunction="J3" end="1620" vehsPerHour="31.245984645917947"/>
  <flow id="JF7196" begin="1560" fromJunction="J2" toJunction="J4" end="1620" vehsPerHour="37.75353336653664"/>
  <flow id="JF7197" begin="1560" fromJunction="J3" toJunction="J0" end="1620" vehsPerHour="82.32476544532913"/>
  <flow id="JF7198" begin="1560" fromJunction="J3" toJunction="J2" end="1620" vehsPerHour="128.81359425957993"/>
  <flow id="JF7199" begin="1560" fromJunction="J4" toJunction="J0" end="1620" vehsPerHour="85.11770051201681"/>
  <flow id="JF7200" begin="1560" fromJunction="J4" toJunction="J3" end="1620" vehsPerHour="54.243537438547065"/>
  <flow id="JF7201" begin="1620" fromJunction="J0" toJunction="J3" end="1680" vehsPerHour="128.22008023411195"/>
  <flow id="JF7202" begin="1620" fromJunction="J0" toJunction="J4" end="1680" vehsPerHour="108.3932080539139"/>
  <flow id="JF7203" begin="1620" fromJunction="J2" toJunction="J0" end="1680" vehsPerHour="34.139938437857296"/>
  <flow id="JF7204" begin="1620" fromJunction="J2" toJunction="J3" end="1680" vehsPerHour="94.96957448252287"/>
  <flow id="JF7205" begin="1620" fromJunction="J2" toJunction="J4" end="1680" vehsPerHour="35.26264180012719"/>
  <flow id="JF7206" begin="1620" fromJunction="J3" toJunction="J0" end="1680" vehsPerHour="55.2553314432785"/>
  <flow id="JF7207" begin="1620" fromJunction="J3" toJunction="J4" end="1680" vehsPerHour="76.5251506265657"/>
  <flow id="JF7208" begin="1620" fromJunction="J4" toJunction="J0" end="1680" vehsPerHour="17.001078773903355"/>
  <flow id="JF7209" begin="1620" fromJunction="J4" toJunction="J2" end="1680" vehsPerHour="72.07651274461034"/>
  <flow id="JF7210" begin="1620" fromJunction="J4" toJunction="J3" end="1680" vehsPerHour="48.67422754683386"/>
  <flow id="JF7211" begin="1680" fromJunction="J0" toJunction="J2" end="1740" vehsPerHour="112.08642285302773"/>
  <flow id="JF7212" begin="1680" fromJunction="J2" toJunction="J3" end="1740" vehsPerHour="130.52810280794796"/>
  <flow id="JF7213" begin="1680" fromJunction="J3" toJunction="J0" end="1740" vehsPerHour="47.17470052968335"/>
  <flow id="JF7214" begin="1680" fromJunction="J3" toJunction="J4" end="1740" vehsPerHour="75.57787043516183"/>
  <flow id="JF7215" begin="1680" fromJunction="J4" toJunction="J0" end="1740" vehsPerHour="4.149972767386271"/>
  <flow id="JF7216" begin="1740" fromJunction="J0" toJunction="J2" end="1800" vehsPerHour="129.23856103767835"/>
  <flow id="JF7217" begin="1740" fromJunction="J0" toJunction="J3" end="1800" vehsPerHour="127.46552108929747"/>
  <flow id="JF7218" begin="1740" fromJunction="J0" toJunction="J4" end="1800" vehsPerHour="33.49728615353948"/>
  <flow id="JF7219" begin="1740" fromJunction="J2" toJunction="J0" end="1800" vehsPerHour="124.99156379361354"/>
  <flow id="JF7220" begin="1740" fromJunction="J2" toJunction="J3" end="1800" vehsPerHour="11.89783095144035"/>
  <flow id="JF7221" begin="1740" fromJunction="J2" toJunction="J4" end="1800" vehsPerHour="43.48369295503384"/>
  <flow id="JF7222" begin="1740" fromJunction="J3" toJunction="J0" end="1800" vehsPerHour="8.277597859753222"/>
  <flow id="JF7223" begin="1740" fromJunction="J3" toJunction="J2" end="1800" vehsPerHour="82.56355808049854"/>
  <flow id="JF7224" begin="1740" fromJunction="J3" toJunction="J4" end="1800" vehsPerHour="32.04473008962716"/>
  <flow id="JF7225" begin="1740" fromJunction="J4" toJunction="J0" end="1800" vehsPerHour="61.09355541547541"/>
  <flow id="JF7226" begin="1800" fromJunction="J0" toJunction="J2" end="1860" vehsPerHour="17.022605295523636"/>
  <flow id="JF7227" begin="1800" fromJunction="J0" toJunction="J3" end="1860" vehsPerHour="45.947138387423706"/>
  <flow id="JF7228" begin="1800" fromJunction="J0" toJunction="J4" end="1860" vehsPerHour="40.93138258964891"/>
  <flow id="JF7229" begin="1800" fromJunction="J2" toJunction="J0" end="1860" vehsPerHour="5.739671365376457"/>
  <flow id="JF7230" begin="1800" fromJunction="J2" toJunction="J3" end="1860" vehsPerHour="8.391344928528262"/>
  <flow id="JF7231" begin="1800" fromJunction="J3" toJunction="J0" end="1860" vehsPerHour="105.94104871346056"/>
  <flow id="JF7232" begin="1800" fromJunction="J3" toJunction="J4" end="1860" vehsPerHour="8.58158637645825"/>
  <flow id="JF7233" begin="1800" fromJunction="J4" toJunction="J0" end="1860" vehsPerHour="3.393196194373821"/>
  <flow id="JF7234" begin="1860" fromJunction="J0" toJunction="J2" end="1920" vehsPerHour="31.62753784190699"/>
  <flow id="JF7235" begin="1860" fromJunction="J0" toJunction="J3" end="1920" vehsPerHour="6.257474907099105"/>
  <flow id="JF7236" begin="1860" fromJunction="J0" toJunction="J4" end="1920" vehsPerHour="52.193749471776165"/>
  <flow id="JF7237" begin="1860" fromJunction="J3" toJunction="J0" end="1920" vehsPerHour="7.151981284087394"/>
  <flow id="JF7238" begin="1860" fromJunction="J3" toJunction="J4" end="1920" vehsPerHour="57.74493941541737"/>
  <flow id="JF7239" begin="1860" fromJunction="J4" toJunction="J3" end="1920" vehsPerHour="3.967315799525697"/>