<?xml version="1.0" encoding="UTF-8"?>
<routes xmlns:xsi="http://www.w3.org/2001/XMLSchema-instance" xsi:noNamespaceSchemaLocation="http://sumo.dlr.de/xsd/routes_file.xsd">
  <flow id="JF2819" begin="0" fromJunction="J0" toJunction="J2" end="60" vehsPerHour="66.80533603344722"/>
  <flow id="JF2820" begin="0" fromJunction="J0" toJunction="J3" end="60" vehsPerHour="0.8224805565332056"/>
  <flow id="JF2821" begin="0" fromJunction="J2" toJunction="J0" end="60" vehsPerHour="93.47071262325775"/>
  <flow id="JF2822" begin="0" fromJunction="J2" toJunction="J3" end="60" vehsPerHour="77.99559663903555"/>
  <flow id="JF2823" begin="0" fromJunction="J2" toJunction="J4" end="60" vehsPerHour="135.17683069873075"/>
  <flow id="JF2824" begin="0" fromJunction="J3" toJunction="J0" end="60" vehsPerHour="132.60345995195536"/>
  <flow id="JF2825" begin="0" fromJunction="J3" toJunction="J4" end="60" vehsPerHour="86.49310504874343"/>
  <flow id="JF2826" begin="0" fromJunction="J4" toJunction="J0" end="60" vehsPerHour="35.48172452158452"/>
  <flow id="JF2827" begin="0" fromJunction="J4" toJunction="J2" end="60" vehsPerHour="56.01169828191683"/>
  <flow id="JF2828" begin="0" fromJunction="J4" toJunction="J3" end="60" vehsPerHour="127.87672809651426"/>
  <flow id="JF2829" begin="60" fromJunction="J0" toJunction="J3" end="120" vehsPerHour="47.55125707257955"/>
  <flow id="JF2830" begin="60" fromJunction="J2" toJunction="J3" end="120" vehsPerHour="136.51752211840977"/>
  <flow id="JF2831" begin="60" fromJunction="J2" toJunction="J4" end="120" vehsPerHour="3.8874393962488054"/>
  <flow id="JF2832" begin="60" fromJunction="J3" toJunction="J0" end="120" vehsPerHour="58.89324686441758"/>
  <flow id="JF2833" begin="60" fromJunction="J3" toJunction="J2" end="120" vehsPerHour="89.47998520516963"/>
  <flow id="JF2834" begin="60" fromJunction="J4" toJunction="J0" end="120" vehsPerHour="1.1367695851349193"/>
  <flow id="JF2835" begin="60" fromJunction="J4" toJunction="J2" end="120" vehsPerHour="101.46128873240377"/>
  <flow id="JF2836" begin="120" fromJunction="J0" toJunction="J2" end="180" vehsPerHour="132.9734111831454"/>
  <flow id="JF2837" begin="120" fromJunction="J2" toJunction="J3" end="180" vehsPerHour="56.65857158883314"/>
  <flow id="JF2838" begin="120" fromJunction="J3" toJunction="J0" end="180" vehsPerHour="109.01653439377303"/>
  <flow id="JF2839" begin="120" fromJunction="J3" toJunction="J2" end="180" vehsPerHour="49.67913936899876"/>
  <flow id="JF2840" begin="120" fromJunction="J3" toJunction="J4" end="180" vehsPerHour="89.0204926851302"/>
  <flow id="JF2841" begin="120" fromJunction="J4" toJunction="J0" end="180" vehsPerHour="5.51546927134888"/>
  <flow id="JF2842" begin="120" fromJunction="J4" toJunction="J2" end="180" vehsPerHour="132.85017163968638"/>
  <flow id="JF2843" begin="180" fromJunction="J0" toJunction="J3" end="240" vehsPerHour="114.51016353437849"/>
  <flow id="JF2844" begin="180" fromJunction="J2" toJunction="J0" end="240" vehsPerHour="64.75223304990391"/>
  <flow id="JF2845" begin="180" fromJunction="J2" toJunction="J3" end="240" vehsPerHour="24.999409449543897"/>
  <flow id="JF2846" begin="180" fromJunction="J3" toJunction="J0" end="240" vehsPerHour="37.26320747352937"/>
  <flow id="JF2847" begin="180" fromJunction="J3" toJunction="J2" end="240" vehsPerHour="74.66435826114576"/>
  <flow id="JF2848" begin="180" fromJunction="J3" toJunction="J4" end="240" vehsPerHour="72.09144635185021"/>
  <flow id="JF2849" begin="180" fromJunction="J4" toJunction="J3" end="240" vehsPerHour="53.29721286924389"/>
  <flow id="JF2850" begin="240" fromJunction="J0" toJunction="J3" end="300" vehsPerHour="37.01155699945939"/>
  <flow id="JF2851" begin="240" fromJunction="J0" toJunction="J4" end="300" vehsPerHour="28.853042460417978"/>
  <flow id="JF2852" begin="240" fromJunction="J2" toJunction="J4" end="300" vehsPerHour="92.64189455640724"/>
  <flow id="JF2853" begin="240" fromJunction="J3" toJunction="J4" end="300" vehsPerHour="77.9160957858273"/>
  <flow id="JF2854" begin="240" fromJunction="J4" toJunction="J2" end="300" vehsPerHour="22.470576646705727"/>
  <flow id="JF2855" begin="300" fromJunction="J0" toJunction="J2" end="360" vehsPerHour="120.62579508402045"/>
  <flow id="JF2856" begin="300" fromJunction="J0" toJunction="J3" end="360" vehsPerHour="130.21490162137746"/>
  <flow id="JF2857" begin="300" fromJunction="J0" toJunction="J4" end="360" vehsPerHour="96.86955820799882"/>
  <flow id="JF2858" begin="300" fromJunction="J3" toJunction="J4" end="360" vehsPerHour="7.719637801518281"/>
  <flow id="JF2859" begin="300" fromJunction="J4" toJunction="J2" end="360" vehsPerHour="136.0377279011043"/>
  <flow id="JF2860" begin="360" fromJunction="J0" toJunction="J2" end="420" vehsPerHour="119.41177238806287"/>
  <flow id="JF2861" begin="360" fromJunction="J2" toJunction="J0" end="420" vehsPerHour="15.276701336256673"/>
  <flow id="JF2862" begin="360" fromJunction="J2" toJunction="J3" end="420" vehsPerHour="67.6612760164051"/>
  <flow id="JF2863" begin="360" fromJunction="J3" toJunction="J0" end="420" vehsPerHour="42.513415426883924"/>
  <flow id="JF2864" begin="360" fromJunction="J3" toJunction="J2" end="420" vehsPerHour="116.33005448825803"/>
  <flow id="JF2865" begin="360" fromJunction="J4" toJunction="J2" end="420" vehsPerHour="16.054630132456076"/>
  <flow id="JF2866" begin="360" fromJunction="J4" toJunction="J3" end="420" vehsPerHour="36.363369718771814"/>
  <flow id="JF2867" begin="420" fromJunction="J0" toJunction="J2" end="480" vehsPerHour="40.79497058794425"/>
  <flow id="JF2868" begin="420" fromJunction="J0" toJunction="J3" end="480" vehsPerHour="134.67819270866121"/>
  <flow id="JF2869" begin="420" fromJunction="J0" toJunction="J4" end="480" vehsPerHour="91.97275677514799"/>
  <flow id="JF2870" begin="420" fromJunction="J2" toJunction="J0" end="480" vehsPerHour="69.54973607910604"/>
  <flow id="JF2871" begin="420" fromJunction="J2" toJunction="J3" end="480" vehsPerHour="61.26003810979436"/>
  <flow id="JF2872" begin="420" fromJunction="J2" toJunction="J4" end="480" vehsPerHour="46.60832214162665"/>
  <flow id="JF2873" begin="420" fromJunction="J3" toJunction="J0" end="480" vehsPerHour="64.04760586196493"/>
  <flow id="JF2874" begin="420" fromJunction="J3" toJunction="J4" end="480" vehsPerHour="8.535662625128559"/>
  <flow id="JF2875" begin="420" fromJunction="J4" toJunction="J0" end="480" vehsPerHour="25.216366270414103"/>
  <flow id="JF2876" begin="420" fromJunction="J4" toJunction="J2" end="480" vehsPerHour="84.30948045447381"/>
  <flow id="JF2877" begin="480" fromJunction="J0" toJunction="J2" end="540" vehsPerHour="45.13600365254093"/>
  <flow id="JF2878" begin="480" fromJunction="J0" toJunction="J4" end="540" vehsPerHour="20.84388555740881"/>
  <flow id="JF2879" begin="480" fromJunction="J2" toJunction="J3" end="540" vehsPerHour="8.36472092691967"/>
  <flow id="JF2880" begin="480" fromJunction="J3" toJunction="J0" end="540" vehsPerHour="31.931968277139767"/>
  <flow id="JF2881" begin="480" fromJunction="J3" toJunction="J2" end="540" vehsPerHour="101.44668659956577"/>
  <flow id="JF2882" begin="480" fromJunction="J3" toJunction="J4" end="540" vehsPerHour="10.307349518617094"/>
  <flow id="JF2883" begin="480" fromJunction="J4" toJunction="J0" end="540" vehsPerHour="1.7877464003735735"/>
  <flow id="JF2884" begin="540" fromJunction="J0" toJunction="J2" end="600" vehsPerHour="112.09912061157559"/>
  <flow id="JF2885" begin="540" fromJunction="J0" toJunction="J3" end="600" vehsPerHour="3.8016466612468944"/>
  <flow id="JF2886" begin="540" fromJunction="J0" toJunction="J4" end="600" vehsPerHour="127.95687560372355"/>
  <flow id="JF2887" begin="540" fromJunction="J2" toJunction="J0" end="600" vehsPerHour="47.54773057393089"/>
  <flow id="JF2888" begin="540" fromJunction="J2" toJunction="J4" end="600" vehsPerHour="114.0881939365141"/>
  <flow id="JF2889" begin="540" fromJunction="J3" toJunction="J0" end="600" vehsPerHour="76.18300224956134"/>
  <flow id="JF2890" begin="540" fromJunction="J3" toJunction="J2" end="600" vehsPerHour="87.59022247923632"/>
  <flow id="JF2891" begin="540" fromJunction="J4" toJunction="J0" end="600" vehsPerHour="27.345736677661122"/>
  <flow id="JF2892" begin="540" fromJunction="J4" toJunction="J3" end="600" vehsPerHour="12.912584202997442"/>
  <flow id="JF2893" begin="600" fromJunction="J0" toJunction="J3" end="660" vehsPerHour="29.850012404425478"/>
  <flow id="JF2894" begin="600" fromJunction="J0" toJunction="J4" end="660" vehsPerHour="48.12059096525079"/>
  <flow id="JF2895" begin="600" fromJunction="J2" toJunction="J0" end="660" vehsPerHour="76.7824585529235"/>
  <flow id="JF2896" begin="600" fromJunction="J2" toJunction="J3" end="660" vehsPerHour="41.29457452161763"/>
  <flow id="JF2897" begin="600" fromJunction="J3" toJunction="J0" end="660" vehsPerHour="80.49686125854063"/>
  <flow id="JF2898" begin="600" fromJunction="J3" toJunction="J2" end="660" vehsPerHour="32.64541384951887"/>
  <flow id="JF2899" begin="600" fromJunction="J4" toJunction="J0" end="660" vehsPerHour="115.3504687137999"/>
  <flow id="JF2900" begin="600" fromJunction="J4" toJunction="J2" end="660" vehsPerHour="121.73329397333794"/>
  <flow id="JF2901" begin="600" fromJunction="J4" toJunction="J3" end="660" vehsPerHour="38.14821987474442"/>
  <flow id="JF2902" begin="660" fromJunction="J0" toJunction="J3" end="720" vehsPerHour="75.22063987699141"/>
  <flow id="JF2903" begin="660" fromJunction="J0" toJunction="J4" end="720" vehsPerHour="55.33388004061619"/>
  <flow id="JF2904" begin="660" fromJunction="J2" toJunction="J0" end="720" vehsPerHour="114.34956324414509"/>
  <flow id="JF2905" begin="660" fromJunction="J2" toJunction="J4" end="720" vehsPerHour="120.12198878318155"/>
  <flow id="JF2906" begin="660" fromJunction="J4" toJunction="J0" end="720" vehsPerHour="118.82297173147678"/>
  <flow id="JF2907" begin="660" fromJunction="J4" toJunction="J2" end="720" vehsPerHour="13.103163566236605"/>
  <flow id="JF2908" begin="660" fromJunction="J4" toJunction="J3" end="720" vehsPerHour="110.5497919547583"/>
  <flow id="JF2909" begin="720" fromJunction="J0" toJunction="J2" end="780" vehsPerHour="71.19474077262062"/>
  <flow id="JF2910" begin="720" fromJunction="J0" toJunction="J3" end="780" vehsPerHour="28.66997166913098"/>
  <flow id="JF2911" begin="720" fromJunction="J2" toJunction="J3" end="780" vehsPerHour="50.260940680741605"/>
  <flow id="JF2912" begin="720" fromJunction="J2" toJunction="J4" end="780" vehsPerHour="32.09565211574048"/>
  <flow id="JF2913" begin="720" fromJunction="J3" toJunction="J0" end="780" vehsPerHour="119.25477875975139"/>
  <flow id="JF2914" begin="720" fromJunction="J3" toJunction="J4" end="780" vehsPerHour="91.82248428427319"/>
  <flow id="JF2915" begin="720" fromJunction="J4" toJunction="J0" end="780" vehsPerHour="22.357494842326894"/>
  <flow id="JF2916" begin="720" fromJunction="J4" toJunction="J3" end="780" vehsPerHour="134.2581672731778"/>
  <flow id="JF2917" begin="780" fromJunction="J0" toJunction="J2" end="840" vehsPerHour="131.67857364453022"/>
  <flow id="JF2918" begin="780" fromJunction="J0" toJunction="J4" end="840" vehsPerHour="136.72271170167713"/>
  <flow id="JF2919" begin="780" fromJunction="J2" toJunction="J3" end="840" vehsPerHour="90.53874501416398"/>
  <flow id="JF2920" begin="780" fromJunction="J3" toJunction="J0" end="840" vehsPerHour="31.603132954243215"/>
  <flow id="JF2921" begin="780" fromJunction="J3" toJunction="J2" end="840" vehsPerHour="135.86076861085758"/>
  <flow id="JF2922" begin="780" fromJunction="J3" toJunction="J4" end="840" vehsPerHour="74.91990442954034"/>
  <flow id="JF2923" begin="780" fromJunction="J4" toJunction="J0" end="840" vehsPerHour="5.133884363537647"/>
  <flow id="JF2924" begin="780" fromJunction="J4" toJunction="J2" end="840" vehsPerHour="63.23896302200148"/>
  <flow id="JF2925" begin="780" fromJunction="J4" toJunction="J3" end="840" vehsPerHour="122.11025029742665"/>
  <flow id="JF2926" begin="840" fromJunction="J0" toJunction="J4" end="900" vehsPerHour="83.27940885942654"/>
  <flow id="JF2927" begin="840" fromJunction="J2" toJunction="J3" end="900" vehsPerHour="22.854371697720733"/>
  <flow id="JF2928" begin="840" fromJunction="J2" toJunction="J4" end="900" vehsPerHour="49.6187625804792"/>
  <flow id="JF2929" begin="840" fromJunction="J3" toJunction="J0" end="900" vehsPerHour="118.2984880237199"/>
  <flow id="JF2930" begin="840" fromJunction="J3" toJunction="J2" end="900" vehsPerHour="123.89824283044598"/>
  <flow id="JF2931" begin="840" fromJunction="J4" toJunction="J2" end="900" vehsPerHour="128.5468155957234"/>
  <flow id="JF2932" begin="840" fromJunction="J4" toJunction="J3" end="900" vehsPerHour="101.69474107053543"/>
  <flow id="JF2933" begin="900" fromJunction="J0" toJunction="J2" end="960" vehsPerHour="130.71926530466814"/>
  <flow id="JF2934" begin="900" fromJunction="J2" toJunction="J3" end="960" vehsPerHour="78.12837217305346"/>
  <flow id="JF2935" begin="900" fromJunction="J2" toJunction="J4" end="960" vehsPerHour="132.97039712598192"/>
  <flow id="JF2936" begin="900" fromJunction="J3" toJunction="J0" end="960" vehsPerHour="74.578122889045"/>
  <flow id="JF2937" begin="900" fromJunction="J3" toJunction="J2" end="960" vehsPerHour="58.0555771366153"/>
  <flow id="JF2938" begin="900" fromJunction="J3" toJunction="J4" end="960" vehsPerHour="126.93882646497859"/>
  <flow id="JF2939" begin="900" fromJunction="J4" toJunction="J0" end="960" vehsPerHour="98.25055858413403"/>
  <flow id="JF2940" begin="900" fromJunction="J4" toJunction="J2" end="960" vehsPerHour="2.155926276877168"/>
  <flow id="JF2941" begin="960" fromJunction="J0" toJunction="J2" end="1020" vehsPerHour="9.362009941866384"/>
  <flow id="JF2942" begin="960" fromJunction="J0" toJunction="J3" end="1020" vehsPerHour="97.10385870352209"/>
  <flow id="JF2943" begin="960" fromJunction="J2" toJunction="J0" end="1020" vehsPerHour="51.062089871070626"/>
  <flow id="JF2944" begin="960" fromJunction="J2" toJunction="J3" end="1020" vehsPerHour="113.59602612458932"/>
  <flow id="JF2945" begin="960" fromJunction="J2" toJunction="J4" end="1020" vehsPerHour="2.970080747763775"/>
  <flow id="JF2946" begin="960" fromJunction="J3" toJunction="J0" end="1020" vehsPerHour="69.88640927304907"/>
  <flow id="JF2947" begin="960" fromJunction="J4" toJunction="J2" end="1020" vehsPerHour="39.283916385844535"/>
  <flow id="JF2948" begin="960" fromJunction="J4" toJunction="J3" end="1020" vehsPerHour="62.33290591048668"/>
  <flow id="JF2949" begin="1020" fromJunction="J0" toJunction="J3" end="1080" vehsPerHour="35.49723613038923"/>
  <flow id="JF2950" begin="1020" fromJunction="J0" toJunction="J4" end="1080" vehsPerHour="39.19567839637124"/>
  <flow id="JF2951" begin="1020" fromJunction="J2" toJunction="J0" end="1080" vehsPerHour="19.76620433957474"/>
  <flow id="JF2952" begin="1020" fromJunction="J2" toJunction="J3" end="1080" vehsPerHour="83.23239191702292"/>
  <flow id="JF2953" begin="1020" fromJunction="J2" toJunction="J4" end="1080" vehsPerHour="58.762229452970544"/>
  <flow id="JF2954" begin="1020" fromJunction="J3" toJunction="J0" end="1080" vehsPerHour="92.84615693656036"/>
  <flow id="JF2955" begin="1020" fromJunction="J3" toJunction="J2" end="1080" vehsPerHour="133.30337145642824"/>
  <flow id="JF2956" begin="1020" fromJunction="J3" toJunction="J4" end="1080" vehsPerHour="53.27065634820002"/>
  <flow id="JF2957" begin="1020" fromJunction="J4" toJunction="J0" end="1080" vehsPerHour="19.38104550434286"/>
  <flow id="JF2958" begin="1020" fromJunction="J4" toJunction="J2" end="1080" vehsPerHour="116.83799650522947"/>
  <flow id="JF2959" begin="1080" fromJunction="J0" toJunction="J2" end="1140" vehsPerHour="93.96973995323006"/>
  <flow id="JF2960" begin="1080" fromJunction="J0" toJunction="J3" end="1140" vehsPerHour="116.86736986269425"/>
  <flow id="JF2961" begin="1080" fromJunction="J2" toJunction="J4" end="1140" vehsPerHour="103.41613265603475"/>
  <flow id="JF2962" begin="1080" fromJunction="J3" toJunction="J0" end="1140" vehsPerHour="111.36977061594693"/>
  <flow id="JF2963" begin="1080" fromJunction="J3" toJunction="J4" end="1140" vehsPerHour="47.65001162141471"/>
  <flow id="JF2964" begin="1080" fromJunction="J4" toJunction="J2" end="1140" vehsPerHour="27.271887570292076"/>
  <flow id="JF2965" begin="1080" fromJunction="J4" toJunction="J3" end="1140" vehsPerHour="72.42670577498446"/>
  <flow id="JF2966" begin="1140" fromJunction="J0" toJunction="J2" end="1200" vehsPerHour="57.74287027124241"/>
  <flow id="JF2967" begin="1140" fromJunction="J0" toJunction="J3" end="1200" vehsPerHour="116.53862766920193"/>
  <flow id="JF2968" begin="1140" fromJunction="J0" toJunction="J4" end="1200" vehsPerHour="40.40390444574041"/>
  <flow id="JF2969" begin="1140" fromJunction="J2" toJunction="J4" end="1200" vehsPerHour="5.802604498055786"/>
  <flow id="JF2970" begin="1140" fromJunction="J3" toJunction="J0" end="1200" vehsPerHour="80.2819589421642"/>
  <flow id="JF2971" begin="1140" fromJunction="J3" toJunction="J2" end="1200" vehsPerHour="117.02241847171503"/>
  <flow id="JF2972" begin="1140" fromJunction="J4" toJunction="J2" end="1200" vehsPerHour="65.22910528556574"/>
  <flow id="JF2973" begin="1200" fromJunction="J0" toJunction="J2" end="1260" vehsPerHour="15.296712221590319"/>
  <flow id="JF2974" begin="1200" fromJunction="J0" toJunction="J3" end="1260" vehsPerHour="97.86884239553841"/>
  <flow id="JF2975" begin="1200" fromJunction="J0" toJunction="J4" end="1260" vehsPerHour="13.724852769333086"/>
  <flow id="JF2976" begin="1200" fromJunction="J2" toJunction="J0" end="1260" vehsPerHour="76.96344499174184"/>
  <flow id="JF2977" begin="1200" fromJunction="J2" toJunction="J3" end="1260" vehsPerHour="23.49166236089596"/>
  <flow id="JF2978" begin="1200" fromJunction="J2" toJunction="J4" end="1260" vehsPerHour="47.160656290966294"/>
  <flow id="JF2979" begin="1200" fromJunction="J3" toJunction="J0" end="1260" vehsPerHour="71.57164924153231"/>
  <flow id="JF2980" begin="1200" fromJunction="J4" toJunction="J0" end="1260" vehsPerHour="41.16843335940958"/>
  <flow id="JF2981" begin="1260" fromJunction="J0" toJunction="J2" end="1320" vehsPerHour="23.972954411804878"/>
  <flow id="JF2982" begin="1260" fromJunction="J0" toJunction="J3" end="1320" vehsPerHour="71.13656675335736"/>
  <flow id="JF2983" begin="1260" fromJunction="J0" toJunction="J4" end="1320" vehsPerHour="20.686533162154237"/>
  <flow id="JF2984" begin="1260" fromJunction="J2" toJunction="J0" end="1320" vehsPerHour="9.594442051577255"/>
  <flow id="JF2985" begin="1260" fromJunction="J2" toJunction="J3" end="1320" vehsPerHour="1.4660400549043828"/>
  <flow id="JF2986" begin="1260" fromJunction="J2" toJunction="J4" end="1320" vehsPerHour="32.34490275837027"/>
  <flow id="JF2987" begin="1260" fromJunction="J3" toJunction="J0" end="1320" vehsPerHour="42.88558981909646"/>
  <flow id="JF2988" begin="1260" fromJunction="J3" toJunction="J4" end="1320" vehsPerHour="71.47753752571754"/>
  <flow id="JF2989" begin="1260" fromJunction="J4" toJunction="J0" end="1320" vehsPerHour="64.29798976329488"/>
  <flow id="JF2990" begin="1260" fromJunction="J4" toJunction="J2" end="1320" vehsPerHour="100.44096024270057"/>
  <flow id="JF2991" begin="1320" fromJunction="J0" toJunction="J3" end="1380" vehsPerHour="9.192624960775767"/>
  <flow id="JF2992" begin="1320" fromJunction="J0" toJunction="J4" end="1380" vehsPerHour="41.838531949156454"/>
  <flow id="JF2993" begin="1320" fromJunction="J2" toJunction="J4" end="1380" vehsPerHour="87.29336612567681"/>
  <flow id="JF2994" begin="1320" fromJunction="J3" toJunction="J0" end="1380" vehsPerHour="9.019796427829872"/>
  <flow id="JF2995" begin="1320" fromJunction="J3" toJunction="J4" end="1380" vehsPerHour="117.4738765774396"/>
  <flow id="JF2996" begin="1320" fromJunction="J4" toJunction="J3" end="1380" vehsPerHour="113.15615938969557"/>
  <flow id="JF2997" begin="1380" fromJunction="J0" toJunction="J4" end="1440" vehsPerHour="11.056101985081673"/>
  <flow id="JF2998" begin="1380" fromJunction="J2" toJunction="J3" end="1440" vehsPerHour="42.072548661320575"/>
  <flow id="JF2999" begin="1380" fromJunction="J2" toJunction="J4" end="1440" vehsPerHour="120.10991329828234"/>
  <flow id="JF3000" begin="1380" fromJunction="J3" toJunction="J0" end="1440" vehsPerHour="63.27283963106176"/>
  <flow id="JF3001" begin="1380" fromJunction="J3" toJunction="J2" end="1440" vehsPerHour="66.3915879293165"/>
  <flow id="JF3002" begin="1380" fromJunction="J3" toJunction="J4" end="1440" vehsPerHour="50.57760324209471"/>
  <flow id="JF3003" begin="1380" fromJunction="J4" toJunction="J0" end="1440" vehsPerHour="14.183820875523091"/>
  <flow id="JF3004" begin="1380" fromJunction="J4" toJunction="J3" end="1440" vehsPerHour="102.03433422937454"/>
  <flow id="JF3005" begin="1440" fromJunction="J0" toJunction="J2" end="1500" vehsPerHour="74.2509140640423"/>
  <flow id="JF3006" begin="1440" fromJunction="J0" toJunction="J3" end="1500" vehsPerHour="114.41558458751683"/>
  <flow id="JF3007" begin="1440" fromJunction="J0" toJunction="J4" end="1500" vehsPerHour="128.292763779097"/>
  <flow id="JF3008" begin="1440" fromJunction="J2" toJunction="J0" end="1500" vehsPerHour="1.8937050134113962"/>
  <flow id="JF3009" begin="1440" fromJunction="J2" toJunction="J3" end="1500" vehsPerHour="70.4417980183013"/>
  <flow id="JF3010" begin="1440" fromJunction="J2" toJunction="J4" end="1500" vehsPerHour="17.81380390397862"/>
  <flow id="JF3011" begin="1440" fromJunction="J3" toJunction="J2" end="1500" vehsPerHour="3.4544457496386882"/>
  <flow id="JF3012" begin="1440" fromJunction="J3" toJunction="J4" end="1500" vehsPerHour="122.01033555578744"/>
  <flow id="JF3013" begin="1440" fromJunction="J4" toJunction="J2" end="1500" vehsPerHour="82.7932800346012"/>
  <flow id="JF3014" begin="1440" fromJunction="J4" toJunction="J3" end="1500" vehsPerHour="132.96864473217013"/>
  <flow id="JF3015" begin="1500" fromJunction="J0" toJunction="J2" end="1560" vehsPerHour="29.036406841564258"/>
  <flow id="JF3016" begin="1500" fromJunction="J0" toJunction="J3" end="1560" vehsPerHour="15.274530443507551"/>
  <flow id="JF3017" begin="1500" fromJunction="J2" toJunction="J0" end="1560" vehsPerHour="20.517428854798606"/>
  <flow id="JF3018" begin="1500" fromJunction="J2" toJunction="J3" end="1560" vehsPerHour="88.0071384016162"/>
  <flow id="JF3019" begin="1500" fromJunction="J3" toJunction="J0" end="1560" vehsPerHour="100.63791470482643"/>
  <flow id="JF3020" begin="1500" fromJunction="J3" toJunction="J4" end="1560" vehsPerHour="112.82749230556105"/>
  <flow id="JF3021" begin="1500" fromJunction="J4" toJunction="J0" end="1560" vehsPerHour="96.4601404522966"/>
  <flow id="JF3022" begin="1500" fromJunction="J4" toJunction="J2" end="1560" vehsPerHour="6.57228691338027"/>
  <flow id="JF3023" begin="1500" fromJunction="J4" toJunction="J3" end="1560" vehsPerHour="78.38468050770861"/>
  <flow id="JF3024" begin="1560" fromJunction="J0" toJunction="J2" end="1620" vehsPerHour="86.27196068569671"/>
  <flow id="JF3025" begin="1560" fromJunction="J0" toJunction="J3" end="1620" vehsPerHour="73.37222141960845"/>
  <flow id="JF3026" begin="1560" fromJunction="J0" toJunction="J4" end="1620" vehsPerHour="3.8489654494514185"/>
  <flow id="JF3027" begin="1560" fromJunction="J2" toJunction="J3" end="1620" vehsPerHour="95.55823840840574"/>
  <flow id="JF3028" begin="1560" fromJunction="J2" toJunction="J4" end="1620" vehsPerHour="24.184151914359187"/>
  <flow id="JF3029" begin="1560" fromJunction="J3" toJunction="J0" end="1620" vehsPerHour="96.13835397706602"/>
  <flow id="JF3030" begin="1560" fromJunction="J3" toJunction="J4" end="1620" vehsPerHour="53.712858350619264"/>
  <flow id="JF3031" begin="1560" fromJunction="J4" toJunction="J0" end="1620" vehsPerHour="62.29654191025428"/>
  <flow id="JF3032" begin="1560" fromJunction="J4" toJunction="J3" end="1620" vehsPerHour="87.65455533233586"/>
  <flow id="JF3033" begin="1620" fromJunction="J0" toJunction="J2" end="1680" vehsPerHour="134.37824834453625"/>
  <flow id="JF3034" begin="1620" fromJunction="J0" toJunction="J4" end="1680" vehsPerHour="135.97397020158562"/>
  <flow id="JF3035" begin="1620" fromJunction="J2" toJunction="J0" end="1680" vehsPerHour="38.73421470244417"/>
  <flow id="JF3036" begin="1620" fromJunction="J2" toJunction="J3" end="1680" vehsPerHour="69.12324161864068"/>
  <flow id="JF3037" begin="1620" fromJunction="J2" toJunction="J4" end="1680" vehsPerHour="31.265014632652196"/>
  <flow id="JF3038" begin="1620" fromJunction="J3" toJunction="J0" end="1680" vehsPerHour="113.22784007618714"/>
  <flow id="JF3039" begin="1620" fromJunction="J3" toJunction="J4" end="1680" vehsPerHour="47.35120005377727"/>
  <flow id="JF3040" begin="1620" fromJunction="J4" toJunction="J2" end="1680" vehsPerHour="44.21664339928633"/>
  <flow id="JF3041" begin="1680" fromJunction="J2" toJunction="J0" end="1740" vehsPerHour="83.68071873344337"/>
  <flow id="JF3042" begin="1680" fromJunction="J2" toJunction="J3" end="1740" vehsPerHour="85.6539756674531"/>
  <flow id="JF3043" begin="1680" fromJunction="J2" toJunction="J4" end="1740" vehsPerHour="14.02202156359231"/>
  <flow id="JF3044" begin="1680" fromJunction="J3" toJunction="J4" end="1740" vehsPerHour="115.17593787641792"/>
  <flow id="JF3045" begin="1680" fromJunction="J4" toJunction="J2" end="1740" vehsPerHour="84.24750312272606"/>
  <flow id="JF3046" begin="1740" fromJunction="J0" toJunction="J3" end="1800" vehsPerHour="76.9163648176543"/>
  <flow id="JF3047" begin="1740" fromJunction="J0" toJunction="J4" end="1800" vehsPerHour="66.63693229349268"/>
  <flow id="JF3048" begin="1740" fromJunction="J2" toJunction="J0" end="1800" vehsPerHour="65.58807117840905"/>
  <flow id="JF3049" begin="1740" fromJunction="J2" toJunction="J3" end="1800" vehsPerHour="96.0398949498917"/>
  <flow id="JF3050" begin="1740" fromJunction="J2" toJunction="J4" end="1800" vehsPerHour="130.2134525548867"/>
  <flow id="JF3051" begin="1740" fromJunction="J3" toJunction="J2" end="1800" vehsPerHour="22.113818804340713"/>
  <flow id="JF3052" begin="1740" fromJunction="J4" toJunction="J0" end="1800" vehsPerHour="70.10425293889038"/>
  <flow id="JF3053" begin="1740" fromJunction="J4" toJunction="J2" end="1800" vehsPerHour="61.27976931702741"/>
  <flow id="JF3054" begin="1740" fromJunction="J4" toJunction="J3" end="1800" vehsPerHour="32.64040435492742"/>
  <flow id="JF3055" begin="1800" fromJunction="J0" toJunction="J2" end="1860" vehsPerHour="13.940586558181034"/>
  <flow id="JF3056" begin="1800" fromJunction="J2" toJunction="J4" end="1860" vehsPerHour="13.749925150176773"/>
  <flow id="JF3057" begin="1800" fromJunction="J3" toJunction="J0" end="1860" vehsPerHour="23.82619528794502"/>
  <flow id="JF3058" begin="1800" fromJunction="J3" toJunction="J4" end="1860" vehsPerHour="65.07984666022877"/>
  <flow id="JF3059" begin="1800" fromJunction="J4" toJunction="J0" end="1860" vehsPerHour="102.24182481874904"/>
  <flow id="JF3060" begin="1800" fromJunction="J4" toJunction="J2" end="1860" vehsPerHour="131.37044167975873"/>
  <flow id="JF3061" begin="1860" fromJunction="J0" toJunction="J2" end="1920" vehsPerHour="120.8719918179952"/>
  <flow id="JF3062" begin="1860" fromJunction="J0" toJunction="J3" end="1920" vehsPerHour="31.80859120559384"/>
  <flow id="JF3063" begin="1860" fromJunction="J2" toJunction="J0" end="1920" vehsPerHour="82.9677794760257"/>
  <flow id="JF3064" begin="1860" fromJunction="J2" toJunction="J3" end="1920" vehsPerHour="106.6677401054508"/>
  <flow id="JF3065" begin="1860" fromJunction="J3" toJunction="J0" end="1920" vehsPerHour="10.117989415495266"/>
  <flow id="JF3066" begin="1860" fromJunction="J3" toJunction="J2" end="1920" vehsPerHour="22.37709051538912"/>
  <flow id="JF3067" begin="1860" fromJunction="J3" toJunction="J4" end="1920" vehsPerHour="120.64763668614455"/>
  <flow id="JF3068" begin="1920" fromJunction="J0" toJunction="J2" end="1980" vehsPerHour="5.935815753000278"/>
  <flow id="JF3069" begin="1920" fromJunction="J0" toJunction="J3" end="1980" vehsPerHour="80.65813917438949"/>
  <flow id="JF3070" begin="1920" fromJunction="J0" toJunction="J4" end="1980" vehsPerHour="78.73451908568215"/>
  <flow id="JF3071" begin="1920" fromJunction="J2" toJunction="J3" end="1980" vehsPerHour="87.67244364891629"/>
  <flow id="JF3072" begin="1920" fromJunction="J2" toJunction="J4" end="1980" vehsPerHour="58.501468635455595"/>
  <flow id="JF3073" begin="1920" fromJunction="J4" toJunction="J0" end="1980" vehsPerHour="38.47409735408928"/>
  <flow id="JF3074" begin="1980" fromJunction="J0" toJunction="J2" end="2040" vehsPerHour="46.894534248714635"/>
  <flow id="JF3075" begin="1980" fromJunction="J2" toJunction="J0" end="2040" vehsPerHour="51.176581816897794"/>
  <flow id="JF3076" begin="1980" fromJunction="J2" toJunction="J3" end="2040" vehsPerHour="124.48649356750026"/>
  <flow id="JF3077" begin="1980" fromJunction="J2" toJunction="J4" end="2040" vehsPerHour="72.24868753929636"/>
  <flow id="JF3078" begin="1980" fromJunction="J3" toJunction="J0" end="2040" vehsPerHour="114.78637280001236"/>
  <flow id="JF3079" begin="1980" fromJunction="J3" toJunction="J2" end="2040" vehsPerHour="134.1325078027809"/>
  <flow id="JF3080" begin="1980" fromJunction="J4" toJunction="J0" end="2040" vehsPerHour="53.56344970958876"/>
  <flow id="JF3081" begin="1980" fromJunction="J4" toJunction="J3" end="2040" vehsPerHour="83.59826252370156"/>
  <flow id="JF3082" begin="2040" fromJunction="J0" toJunction="J2" end="2100" vehsPerHour="21.614624609335888"/>
  <flow id="JF3083" begin="2040" fromJunction="J0" toJunction="J3" end="2100" vehsPerHour="121.33222750724278"/>
  <flow id="JF3084" begin="2040" fromJunction="J0" toJunction="J4" end="2100" vehsPerHour="124.90101864556446"/>
  <flow id="JF3085" begin="2040" fromJunction="J2" toJunction="J4" end="2100" vehsPerHour="32.21714276210581"/>
  <flow id="JF3086" begin="2040" fromJunction="J3" toJunction="J0" end="2100" vehsPerHour="133.23262771759715"/>