<?xml version="1.0" encoding="UTF-8"?>
<routes xmlns:xsi="http://www.w3.org/2001/XMLSchema-instance" xsi:noNamespaceSchemaLocation="http://sumo.dlr.de/xsd/routes_file.xsd">
  <flow id="JF1436" begin="0" fromJunction="J0" toJunction="J3" end="60" vehsPerHour="64.3409381079245"/>
  <flow id="JF1437" begin="0" fromJunction="J0" toJunction="J4" end="60" vehsPerHour="129.75640227136986"/>
  <flow id="JF1438" begin="0" fromJunction="J2" toJunction="J0" end="60" vehsPerHour="80.41120405067089"/>
  <flow id="JF1439" begin="0" fromJunction="J2" toJunction="J4" end="60" vehsPerHour="9.898444267921633"/>
  <flow id="JF1440" begin="0" fromJunction="J3" toJunction="J0" end="60" vehsPerHour="39.939942841070874"/>
  <flow id="JF1441" begin="0" fromJunction="J3" toJunction="J2" end="60" vehsPerHour="3.7935241778906197"/>
  <flow id="JF1442" begin="0" fromJunction="J3" toJunction="J4" end="60" vehsPerHour="1.524315248560716"/>
  <flow id="JF1443" begin="0" fromJunction="J4" toJunction="J0" end="60" vehsPerHour="119.91195050897825"/>
  <flow id="JF1444" begin="0" fromJunction="J4" toJunction="J2" end="60" vehsPerHour="20.973198934528945"/>
  <flow id="JF1445" begin="0" fromJunction="J4" toJunction="J3" end="60" vehsPerHour="91.46174428920725"/>
  <flow id="JF1446" begin="60" fromJunction="J2" toJunction="J0" end="120" vehsPerHour="3.4204224918071353"/>
  <flow id="JF1447" begin="60" fromJunction="J2" toJunction="J3" end="120" vehsPerHour="28.73899135230026"/>
  <flow id="JF1448" begin="60" fromJunction="J3" toJunction="J0" end="120" vehsPerHour="47.48372195793868"/>
  <flow id="JF1449" begin="60" fromJunction="J3" toJunction="J4" end="120" vehsPerHour="93.59340548885172"/>
  <flow id="JF1450" begin="60" fromJunction="J4" toJunction="J0" end="120" vehsPerHour="103.73959892298463"/>
  <flow id="JF1451" begin="60" fromJunction="J4" toJunction="J2" end="120" vehsPerHour="6.46447176226083"/>
  <flow id="JF1452" begin="60" fromJunction="J4" toJunction="J3" end="120" vehsPerHour="91.56048228769714"/>
  <flow id="JF1453" begin="120" fromJunction="J0" toJunction="J3" end="180" vehsPerHour="105.20944784131001"/>
  <flow id="JF1454" begin="120" fromJunction="J0" toJunction="J4" end="180" vehsPerHour="11.001415744682292"/>
  <flow id="JF1455" begin="120" fromJunction="J2" toJunction="J0" end="180" vehsPerHour="81.53194828844173"/>
  <flow id="JF1456" begin="120" fromJunction="J2" toJunction="J3" end="180" vehsPerHour="133.86056269182768"/>
  <flow id="JF1457" begin="120" fromJunction="J2" toJunction="J4" end="180" vehsPerHour="113.80830535967574"/>
  <flow id="JF1458" begin="120" fromJunction="J3" toJunction="J2" end="180" vehsPerHour="80.81322649102411"/>
  <flow id="JF1459" begin="120" fromJunction="J3" toJunction="J4" end="180" vehsPerHour="125.30541802402679"/>
  <flow id="JF1460" begin="120" fromJunction="J4" toJunction="J0" end="180" vehsPerHour="69.26255914922321"/>
  <flow id="JF1461" begin="120" fromJunction="J4" toJunction="J2" end="180" vehsPerHour="128.92926221811325"/>
  <flow id="JF1462" begin="180" fromJunction="J0" toJunction="J2" end="240" vehsPerHour="88.04023882607646"/>
  <flow id="JF1463" begin="180" fromJunction="J0" toJunction="J3" end="240" vehsPerHour="49.674213478776345"/>
  <flow id="JF1464" begin="180" fromJunction="J0" toJunction="J4" end="240" vehsPerHour="2.2927966989871473"/>
  <flow id="JF1465" begin="180" fromJunction="J2" toJunction="J0" end="240" vehsPerHour="95.52400918092324"/>
  <flow id="JF1466" begin="180" fromJunction="J2" toJunction="J3" end="240" vehsPerHour="130.25002640703002"/>
  <flow id="JF1467" begin="180" fromJunction="J2" toJunction="J4" end="240" vehsPerHour="72.89394476055111"/>
  <flow id="JF1468" begin="180" fromJunction="J3" toJunction="J0" end="240" vehsPerHour="18.275369796302613"/>
  <flow id="JF1469" begin="180" fromJunction="J3" toJunction="J2" end="240" vehsPerHour="100.85140804631801"/>
  <flow id="JF1470" begin="180" fromJunction="J3" toJunction="J4" end="240" vehsPerHour="20.988621582934552"/>
  <flow id="JF1471" begin="180" fromJunction="J4" toJunction="J0" end="240" vehsPerHour="131.6894154865501"/>
  <flow id="JF1472" begin="180" fromJunction="J4" toJunction="J2" end="240" vehsPerHour="83.6951505901532"/>
  <flow id="JF1473" begin="240" fromJunction="J0" toJunction="J2" end="300" vehsPerHour="128.44307331041873"/>
  <flow id="JF1474" begin="240" fromJunction="J0" toJunction="J3" end="300" vehsPerHour="43.32826745980019"/>
  <flow id="JF1475" begin="240" fromJunction="J0" toJunction="J4" end="300" vehsPerHour="36.525369571178885"/>
  <flow id="JF1476" begin="240" fromJunction="J2" toJunction="J3" end="300" vehsPerHour="77.60223880496872"/>
  <flow id="JF1477" begin="240" fromJunction="J2" toJunction="J4" end="300" vehsPerHour="15.317443478046432"/>
  <flow id="JF1478" begin="240" fromJunction="J3" toJunction="J0" end="300" vehsPerHour="12.544369570270598"/>
  <flow id="JF1479" begin="240" fromJunction="J3" toJunction="J2" end="300" vehsPerHour="40.207636991150764"/>
  <flow id="JF1480" begin="240" fromJunction="J3" toJunction="J4" end="300" vehsPerHour="84.92225626481701"/>
  <flow id="JF1481" begin="240" fromJunction="J4" toJunction="J0" end="300" vehsPerHour="1.9995206869854962"/>
  <flow id="JF1482" begin="240" fromJunction="J4" toJunction="J2" end="300" vehsPerHour="91.7041903596978"/>
  <flow id="JF1483" begin="240" fromJunction="J4" toJunction="J3" end="300" vehsPerHour="67.07853605324645"/>
  <flow id="JF1484" begin="300" fromJunction="J0" toJunction="J2" end="360" vehsPerHour="46.040745650549404"/>
  <flow id="JF1485" begin="300" fromJunction="J2" toJunction="J4" end="360" vehsPerHour="84.30529178177018"/>
  <flow id="JF1486" begin="300" fromJunction="J3" toJunction="J0" end="360" vehsPerHour="80.14419060077547"/>
  <flow id="JF1487" begin="300" fromJunction="J3" toJunction="J2" end="360" vehsPerHour="33.08046258546532"/>
  <flow id="JF1488" begin="300" fromJunction="J3" toJunction="J4" end="360" vehsPerHour="109.68226591318822"/>
  <flow id="JF1489" begin="300" fromJunction="J4" toJunction="J0" end="360" vehsPerHour="88.55856043548647"/>
  <flow id="JF1490" begin="300" fromJunction="J4" toJunction="J2" end="360" vehsPerHour="21.041448712724222"/>
  <flow id="JF1491" begin="300" fromJunction="J4" toJunction="J3" end="360" vehsPerHour="67.77711104327238"/>
  <flow id="JF1492" begin="360" fromJunction="J0" toJunction="J2" end="420" vehsPerHour="51.80220202086104"/>
  <flow id="JF1493" begin="360" fromJunction="J0" toJunction="J3" end="420" vehsPerHour="105.81932084150303"/>
  <flow id="JF1494" begin="360" fromJunction="J0" toJunction="J4" end="420" vehsPerHour="79.74780274275457"/>
  <flow id="JF1495" begin="360" fromJunction="J2" toJunction="J0" end="420" vehsPerHour="91.82077895277602"/>
  <flow id="JF1496" begin="360" fromJunction="J2" toJunction="J3" end="420" vehsPerHour="57.75404378586226"/>
  <flow id="JF1497" begin="360" fromJunction="J3" toJunction="J2" end="420" vehsPerHour="13.966161736031907"/>
  <flow id="JF1498" begin="360" fromJunction="J3" toJunction="J4" end="420" vehsPerHour="108.94856160192577"/>
  <flow id="JF1499" begin="360" fromJunction="J4" toJunction="J0" end="420" vehsPerHour="72.57500196522281"/>
  <flow id="JF1500" begin="360" fromJunction="J4" toJunction="J2" end="420" vehsPerHour="3.8711685525788866"/>
  <flow id="JF1501" begin="360" fromJunction="J4" toJunction="J3" end="420" vehsPerHour="89.31619204220173"/>
  <flow id="JF1502" begin="420" fromJunction="J2" toJunction="J3" end="480" vehsPerHour="27.99717904923432"/>
  <flow id="JF1503" begin="420" fromJunction="J3" toJunction="J2" end="480" vehsPerHour="86.0256603549399"/>
  <flow id="JF1504" begin="420" fromJunction="J4" toJunction="J2" end="480" vehsPerHour="50.91027901251708"/>
  <flow id="JF1505" begin="420" fromJunction="J4" toJunction="J3" end="480" vehsPerHour="34.12256826457491"/>
  <flow id="JF1506" begin="480" fromJunction="J0" toJunction="J2" end="540" vehsPerHour="9.777904363185169"/>
  <flow id="JF1507" begin="480" fromJunction="J0" toJunction="J4" end="540" vehsPerHour="61.64524022608797"/>
  <flow id="JF1508" begin="480" fromJunction="J2" toJunction="J0" end="540" vehsPerHour="106.77901105357067"/>
  <flow id="JF1509" begin="480" fromJunction="J2" toJunction="J3" end="540" vehsPerHour="44.695441429838546"/>
  <flow id="JF1510" begin="480" fromJunction="J2" toJunction="J4" end="540" vehsPerHour="95.96769104411959"/>
  <flow id="JF1511" begin="480" fromJunction="J3" toJunction="J0" end="540" vehsPerHour="0.862760527896134"/>
  <flow id="JF1512" begin="480" fromJunction="J3" toJunction="J2" end="540" vehsPerHour="35.96120720218255"/>
  <flow id="JF1513" begin="480" fromJunction="J3" toJunction="J4" end="540" vehsPerHour="46.90656847661675"/>
  <flow id="JF1514" begin="480" fromJunction="J4" toJunction="J0" end="540" vehsPerHour="93.16886325525176"/>
  <flow id="JF1515" begin="480" fromJunction="J4" toJunction="J2" end="540" vehsPerHour="108.08878278786668"/>
  <flow id="JF1516" begin="540" fromJunction="J0" toJunction="J2" end="600" vehsPerHour="115.80223014076395"/>
  <flow id="JF1517" begin="540" fromJunction="J0" toJunction="J3" end="600" vehsPerHour="56.71900575493825"/>
  <flow id="JF1518" begin="540" fromJunction="J2" toJunction="J0" end="600" vehsPerHour="94.62574182568852"/>
  <flow id="JF1519" begin="540" fromJunction="J2" toJunction="J3" end="600" vehsPerHour="119.31782463683321"/>
  <flow id="JF1520" begin="540" fromJunction="J3" toJunction="J0" end="600" vehsPerHour="134.14688615569793"/>
  <flow id="JF1521" begin="540" fromJunction="J3" toJunction="J2" end="600" vehsPerHour="73.53839888140037"/>
  <flow id="JF1522" begin="540" fromJunction="J3" toJunction="J4" end="600" vehsPerHour="119.3345529086387"/>
  <flow id="JF1523" begin="540" fromJunction="J4" toJunction="J0" end="600" vehsPerHour="31.461488605955406"/>
  <flow id="JF1524" begin="540" fromJunction="J4" toJunction="J3" end="600" vehsPerHour="130.5733411646619"/>
  <flow id="JF1525" begin="600" fromJunction="J0" toJunction="J2" end="660" vehsPerHour="121.4569746668596"/>
  <flow id="JF1526" begin="600" fromJunction="J0" toJunction="J3" end="660" vehsPerHour="2.559645415270843"/>
  <flow id="JF1527" begin="600" fromJunction="J0" toJunction="J4" end="660" vehsPerHour="8.176220837105793"/>
  <flow id="JF1528" begin="600" fromJunction="J2" toJunction="J0" end="660" vehsPerHour="123.55120204647442"/>
  <flow id="JF1529" begin="600" fromJunction="J2" toJunction="J3" end="660" vehsPerHour="31.17890683156536"/>
  <flow id="JF1530" begin="600" fromJunction="J2" toJunction="J4" end="660" vehsPerHour="42.3593838145621"/>
  <flow id="JF1531" begin="600" fromJunction="J3" toJunction="J2" end="660" vehsPerHour="135.05334060775726"/>
  <flow id="JF1532" begin="600" fromJunction="J3" toJunction="J4" end="660" vehsPerHour="38.78501451260634"/>
  <flow id="JF1533" begin="600" fromJunction="J4" toJunction="J0" end="660" vehsPerHour="12.125738143850766"/>
  <flow id="JF1534" begin="600" fromJunction="J4" toJunction="J3" end="660" vehsPerHour="14.22535093022668"/>
  <flow id="JF1535" begin="660" fromJunction="J0" toJunction="J2" end="720" vehsPerHour="64.69986728123273"/>
  <flow id="JF1536" begin="660" fromJunction="J2" toJunction="J0" end="720" vehsPerHour="60.920021845634"/>
  <flow id="JF1537" begin="660" fromJunction="J2" toJunction="J4" end="720" vehsPerHour="79.2332227565941"/>
  <flow id="JF1538" begin="660" fromJunction="J3" toJunction="J0" end="720" vehsPerHour="121.7496278179847"/>
  <flow id="JF1539" begin="660" fromJunction="J4" toJunction="J3" end="720" vehsPerHour="36.715844895570676"/>
  <flow id="JF1540" begin="720" fromJunction="J0" toJunction="J3" end="780" vehsPerHour="52.5452777080643"/>
  <flow id="JF1541" begin="720" fromJunction="J2" toJunction="J0" end="780" vehsPerHour="51.871037389040154"/>
  <flow id="JF1542" begin="720" fromJunction="J2" toJunction="J3" end="780" vehsPerHour="14.420413499968557"/>
  <flow id="JF1543" begin="720" fromJunction="J3" toJunction="J0" end="780" vehsPerHour="1.7336717628557292"/>
  <flow id="JF1544" begin="720" fromJunction="J3" toJunction="J4" end="780" vehsPerHour="31.146819444592914"/>
  <flow id="JF1545" begin="720" fromJunction="J4" toJunction="J0" end="780" vehsPerHour="56.04522008485085"/>
  <flow id="JF1546" begin="720" fromJunction="J4" toJunction="J2" end="780" vehsPerHour="43.46715955529522"/>
  <flow id="JF1547" begin="720" fromJunction="J4" toJunction="J3" end="780" vehsPerHour="17.349220511556243"/>
  <flow id="JF1548" begin="780" fromJunction="J0" toJunction="J4" end="840" vehsPerHour="128.33837028493738"/>
  <flow id="JF1549" begin="780" fromJunction="J2" toJunction="J0" end="840" vehsPerHour="52.6569286681744"/>
  <flow id="JF1550" begin="780" fromJunction="J2" toJunction="J3" end="840" vehsPerHour="52.870390368688184"/>
  <flow id="JF1551" begin="780" fromJunction="J2" toJunction="J4" end="840" vehsPerHour="6.0320095821704305"/>
  <flow id="JF1552" begin="780" fromJunction="J3" toJunction="J0" end="840" vehsPerHour="115.45156292906682"/>
  <flow id="JF1553" begin="780" fromJunction="J3" toJunction="J2" end="840" vehsPerHour="29.47317826346671"/>
  <flow id="JF1554" begin="780" fromJunction="J4" toJunction="J0" end="840" vehsPerHour="10.741979674556395"/>
  <flow id="JF1555" begin="780" fromJunction="J4" toJunction="J2" end="840" vehsPerHour="127.27609490933605"/>
  <flow id="JF1556" begin="840" fromJunction="J0" toJunction="J2" end="900" vehsPerHour="29.738246019637717"/>
  <flow id="JF1557" begin="840" fromJunction="J2" toJunction="J0" end="900" vehsPerHour="43.831277946880455"/>
  <flow id="JF1558" begin="840" fromJunction="J2" toJunction="J4" end="900" vehsPerHour="54.656235556682205"/>
  <flow id="JF1559" begin="840" fromJunction="J3" toJunction="J4" end="900" vehsPerHour="62.730659625015434"/>
  <flow id="JF1560" begin="840" fromJunction="J4" toJunction="J0" end="900" vehsPerHour="60.46201389886373"/>
  <flow id="JF1561" begin="840" fromJunction="J4" toJunction="J2" end="900" vehsPerHour="75.53697800246276"/>
  <flow id="JF1562" begin="840" fromJunction="J4" toJunction="J3" end="900" vehsPerHour="16.072750822110997"/>
  <flow id="JF1563" begin="900" fromJunction="J0" toJunction="J2" end="960" vehsPerHour="117.47943178132026"/>
  <flow id="JF1564" begin="900" fromJunction="J0" toJunction="J3" end="960" vehsPerHour="75.31261309815153"/>
  <flow id="JF1565" begin="900" fromJunction="J2" toJunction="J0" end="960" vehsPerHour="5.003389639022983"/>
  <flow id="JF1566" begin="900" fromJunction="J2" toJunction="J3" end="960" vehsPerHour="3.9184973116173434"/>
  <flow id="JF1567" begin="900" fromJunction="J2" toJunction="J4" end="960" vehsPerHour="126.33301336295717"/>
  <flow id="JF1568" begin="900" fromJunction="J3" toJunction="J2" end="960" vehsPerHour="120.96592329201097"/>
  <flow id="JF1569" begin="900" fromJunction="J3" toJunction="J4" end="960" vehsPerHour="24.498727546429716"/>
  <flow id="JF1570" begin="900" fromJunction="J4" toJunction="J0" end="960" vehsPerHour="12.735061525341338"/>
  <flow id="JF1571" begin="900" fromJunction="J4" toJunction="J2" end="960" vehsPerHour="135.01970194790965"/>
  <flow id="JF1572" begin="900" fromJunction="J4" toJunction="J3" end="960" vehsPerHour="59.74831766758448"/>
  <flow id="JF1573" begin="960" fromJunction="J0" toJunction="J3" end="1020" vehsPerHour="53.58263642213948"/>
  <flow id="JF1574" begin="960" fromJunction="J2" toJunction="J0" end="1020" vehsPerHour="58.98526560521645"/>
  <flow id="JF1575" begin="960" fromJunction="J2" toJunction="J3" end="1020" vehsPerHour="120.27218545985595"/>
  <flow id="JF1576" begin="960" fromJunction="J2" toJunction="J4" end="1020" vehsPerHour="62.749894519017275"/>
  <flow id="JF1577" begin="960" fromJunction="J3" toJunction="J0" end="1020" vehsPerHour="89.87795013260654"/>
  <flow id="JF1578" begin="960" fromJunction="J3" toJunction="J2" end="1020" vehsPerHour="52.44797375507409"/>
  <flow id="JF1579" begin="960" fromJunction="J4" toJunction="J2" end="1020" vehsPerHour="46.76279903884884"/>
  <flow id="JF1580" begin="1020" fromJunction="J0" toJunction="J2" end="1080" vehsPerHour="8.469736519055662"/>
  <flow id="JF1581" begin="1020" fromJunction="J0" toJunction="J3" end="1080" vehsPerHour="19.970349657281385"/>
  <flow id="JF1582" begin="1020" fromJunction="J0" toJunction="J4" end="1080" vehsPerHour="6.990515228604024"/>
  <flow id="JF1583" begin="1020" fromJunction="J2" toJunction="J4" end="1080" vehsPerHour="93.79504401187192"/>
  <flow id="JF1584" begin="1020" fromJunction="J3" toJunction="J0" end="1080" vehsPerHour="135.16981503570221"/>
  <flow id="JF1585" begin="1020" fromJunction="J3" toJunction="J2" end="1080" vehsPerHour="83.39827061122165"/>
  <flow id="JF1586" begin="1020" fromJunction="J4" toJunction="J0" end="1080" vehsPerHour="87.60257721222219"/>
  <flow id="JF1587" begin="1020" fromJunction="J4" toJunction="J2" end="1080" vehsPerHour="123.2924679901719"/>
  <flow id="JF1588" begin="1020" fromJunction="J4" toJunction="J3" end="1080" vehsPerHour="49.88000317840016"/>
  <flow id="JF1589" begin="1080" fromJunction="J0" toJunction="J2" end="1140" vehsPerHour="37.947194083023945"/>
  <flow id="JF1590" begin="1080" fromJunction="J0" toJunction="J3" end="1140" vehsPerHour="135.31312709714126"/>
  <flow id="JF1591" begin="1080" fromJunction="J0" toJunction="J4" end="1140" vehsPerHour="129.89875574363396"/>
  <flow id="JF1592" begin="1080" fromJunction="J2" toJunction="J0" end="1140" vehsPerHour="56.85319738527354"/>
  <flow id="JF1593" begin="1080" fromJunction="J2" toJunction="J4" end="1140" vehsPerHour="106.12755155573286"/>
  <flow id="JF1594" begin="1080" fromJunction="J3" toJunction="J0" end="1140" vehsPerHour="65.45814152745815"/>
  <flow id="JF1595" begin="1080" fromJunction="J3" toJunction="J2" end="1140" vehsPerHour="18.923435696497585"/>
  <flow id="JF1596" begin="1080" fromJunction="J3" toJunction="J4" end="1140" vehsPerHour="103.04787267361621"/>
  <flow id="JF1597" begin="1080" fromJunction="J4" toJunction="J3" end="1140" vehsPerHour="1.842012986876066"/>
  <flow id="JF1598" begin="1140" fromJunction="J0" toJunction="J4" end="1200" vehsPerHour="125.8309978184454"/>
  <flow id="JF1599" begin="1140" fromJunction="J2" toJunction="J3" end="1200" vehsPerHour="9.50526980545401"/>
  <flow id="JF1600" begin="1140" fromJunction="J2" toJunction="J4" end="1200" vehsPerHour="36.61177550158077"/>
  <flow id="JF1601" begin="1140" fromJunction="J3" toJunction="J0" end="1200" vehsPerHour="100.87061965503251"/>
  <flow id="JF1602" begin="1140" fromJunction="J3" toJunction="J2" end="1200" vehsPerHour="125.90862302476503"/>
  <flow id="JF1603" begin="1140" fromJunction="J3" toJunction="J4" end="1200" vehsPerHour="58.18217273063173"/>
  <flow id="JF1604" begin="1140" fromJunction="J4" toJunction="J2" end="1200" vehsPerHour="78.22885999766986"/>
  <flow id="JF1605" begin="1200" fromJunction="J0" toJunction="J3" end="1260" vehsPerHour="127.75424443539299"/>
  <flow id="JF1606" begin="1200" fromJunction="J0" toJunction="J4" end="1260" vehsPerHour="11.477322105546925"/>
  <flow id="JF1607" begin="1200" fromJunction="J2" toJunction="J3" end="1260" vehsPerHour="28.96431525225025"/>
  <flow id="JF1608" begin="1200" fromJunction="J2" toJunction="J4" end="1260" vehsPerHour="29.623656677900108"/>
  <flow id="JF1609" begin="1200" fromJunction="J3" toJunction="J0" end="1260" vehsPerHour="129.83506702947997"/>
  <flow id="JF1610" begin="1200" fromJunction="J3" toJunction="J2" end="1260" vehsPerHour="21.055875984236575"/>
  <flow id="JF1611" begin="1200" fromJunction="J3" toJunction="J4" end="1260" vehsPerHour="108.06034524601193"/>
  <flow id="JF1612" begin="1200" fromJunction="J4" toJunction="J0" end="1260" vehsPerHour="28.29955053152484"/>
  <flow id="JF1613" begin="1200" fromJunction="J4" toJunction="J2" end="1260" vehsPerHour="74.7775146260166"/>
  <flow id="JF1614" begin="1200" fromJunction="J4" toJunction="J3" end="1260" vehsPerHour="5.963154618628225"/>
  <flow id="JF1615" begin="1260" fromJunction="J0" toJunction="J3" end="1320" vehsPerHour="22.083422683535858"/>
  <flow id="JF1616" begin="1260" fromJunction="J0" toJunction="J4" end="1320" vehsPerHour="66.14073370844783"/>
  <flow id="JF1617" begin="1260" fromJunction="J2" toJunction="J0" end="1320" vehsPerHour="41.44634613868658"/>
  <flow id="JF1618" begin="1260" fromJunction="J3" toJunction="J0" end="1320" vehsPerHour="72.98893024285117"/>
  <flow id="JF1619" begin="1260" fromJunction="J3" toJunction="J2" end="1320" vehsPerHour="90.05438985719519"/>
  <flow id="JF1620" begin="1260" fromJunction="J4" toJunction="J0" end="1320" vehsPerHour="65.42902235367197"/>
  <flow id="JF1621" begin="1260" fromJunction="J4" toJunction="J2" end="1320" vehsPerHour="86.60923822477154"/>
  <flow id="JF1622" begin="1260" fromJunction="J4" toJunction="J3" end="1320" vehsPerHour="83.96859657351722"/>
  <flow id="JF1623" begin="1320" fromJunction="J0" toJunction="J2" end="1380" vehsPerHour="17.6503784076424"/>
  <flow id="JF1624" begin="1320" fromJunction="J0" toJunction="J3" end="1380" vehsPerHour="132.7852377742177"/>
  <flow id="JF1625" begin="1320" fromJunction="J0" toJunction="J4" end="1380" vehsPerHour="79.66426307893538"/>
  <flow id="JF1626" begin="1320" fromJunction="J2" toJunction="J0" end="1380" vehsPerHour="23.567908695012687"/>
  <flow id="JF1627" begin="1320" fromJunction="J2" toJunction="J3" end="1380" vehsPerHour="47.99128694516464"/>
  <flow id="JF1628" begin="1320" fromJunction="J3" toJunction="J2" end="1380" vehsPerHour="22.122144353064535"/>
  <flow id="JF1629" begin="1320" fromJunction="J3" toJunction="J4" end="1380" vehsPerHour="111.81794931265394"/>
  <flow id="JF1630" begin="1320" fromJunction="J4" toJunction="J0" end="1380" vehsPerHour="17.846674413286994"/>
  <flow id="JF1631" begin="1320" fromJunction="J4" toJunction="J2" end="1380" vehsPerHour="28.573002531072447"/>
  <flow id="JF1632" begin="1320" fromJunction="J4" toJunction="J3" end="1380" vehsPerHour="55.88668893432827"/>
  <flow id="JF1633" begin="1380" fromJunction="J0" toJunction="J3" end="1440" vehsPerHour="32.128943448789194"/>
  <flow id="JF1634" begin="1380" fromJunction="J0" toJunction="J4" end="1440" vehsPerHour="4.404150496417253"/>
  <flow id="JF1635" begin="1380" fromJunction="J2" toJunction="J0" end="1440" vehsPerHour="38.69740764504194"/>
  <flow id="JF1636" begin="1380" fromJunction="J2" toJunction="J3" end="1440" vehsPerHour="125.71510993465522"/>
  <flow id="JF1637" begin="1380" fromJunction="J2" toJunction="J4" end="1440" vehsPerHour="50.969990968166364"/>
  <flow id="JF1638" begin="1380" fromJunction="J3" toJunction="J0" end="1440" vehsPerHour="8.184395505958172"/>
  <flow id="JF1639" begin="1380" fromJunction="J3" toJunction="J2" end="1440" vehsPerHour="27.05836622319265"/>
  <flow id="JF1640" begin="1380" fromJunction="J3" toJunction="J4" end="1440" vehsPerHour="67.9784919726048"/>
  <flow id="JF1641" begin="1380" fromJunction="J4" toJunction="J2" end="1440" vehsPerHour="39.93508682613163"/>
  <flow id="JF1642" begin="1380" fromJunction="J4" toJunction="J3" end="1440" vehsPerHour="81.55647284918508"/>
  <flow id="JF1643" begin="1440" fromJunction="J0" toJunction="J2" end="1500" vehsPerHour="85.66816284351351"/>
  <flow id="JF1644" begin="1440" fromJunction="J0" toJunction="J3" end="1500" vehsPerHour="110.87655409579361"/>
  <flow id="JF1645" begin="1440" fromJunction="J0" toJunction="J4" end="1500" vehsPerHour="14.222489326265675"/>
  <flow id="JF1646" begin="1440" fromJunction="J2" toJunction="J0" end="1500" vehsPerHour="117.37750911093418"/>
  <flow id="JF1647" begin="1440" fromJunction="J2" toJunction="J3" end="1500" vehsPerHour="99.29208786592982"/>
  <flow id="JF1648" begin="1440" fromJunction="J2" toJunction="J4" end="1500" vehsPerHour="117.9928821463835"/>
  <flow id="JF1649" begin="1440" fromJunction="J3" toJunction="J2" end="1500" vehsPerHour="3.852739635962696"/>
  <flow id="JF1650" begin="1440" fromJunction="J4" toJunction="J0" end="1500" vehsPerHour="97.0502734073038"/>
  <flow id="JF1651" begin="1440" fromJunction="J4" toJunction="J2" end="1500" vehsPerHour="54.58227237613601"/>
  <flow id="JF1652" begin="1440" fromJunction="J4" toJunction="J3" end="1500" vehsPerHour="122.44078880231427"/>
  <flow id="JF1653" begin="1500" fromJunction="J0" toJunction="J3" end="1560" vehsPerHour="31.113511224414154"/>
  <flow id="JF1654" begin="1500" fromJunction="J0" toJunction="J4" end="1560" vehsPerHour="14.810763000173559"/>
  <flow id="JF1655" begin="1500" fromJunction="J3" toJunction="J0" end="1560" vehsPerHour="102.90759172265962"/>
  <flow id="JF1656" begin="1500" fromJunction="J3" toJunction="J2" end="1560" vehsPerHour="55.450450810650416"/>
  <flow id="JF1657" begin="1500" fromJunction="J3" toJunction="J4" end="1560" vehsPerHour="106.83376301053576"/>
  <flow id="JF1658" begin="1500" fromJunction="J4" toJunction="J0" end="1560" vehsPerHour="75.10086232864705"/>
  <flow id="JF1659" begin="1500" fromJunction="J4" toJunction="J2" end="1560" vehsPerHour="45.99153362605815"/>
  <flow id="JF1660" begin="1560" fromJunction="J0" toJunction="J2" end="1620" vehsPerHour="106.08540173765422"/>
  <flow id="JF1661" begin="1560" fromJunction="J0" toJunction="J3" end="1620" vehsPerHour="41.85672148377987"/>
  <flow id="JF1662" begin="1560" fromJunction="J0" toJunction="J4" end="1620" vehsPerHour="135.15676137706743"/>
  <flow id="JF1663" begin="1560" fromJunction="J2" toJunction="J0" end="1620" vehsPerHour="74.64643238594935"/>
  <flow id="JF1664" begin="1560" fromJunction="J2" toJunction="J3" end="1620" vehsPerHour="73.58781074740882"/>
  <flow id="JF1665" begin="1560" fromJunction="J2" toJunction="J4" end="1620" vehsPerHour="133.1450446341018"/>
  <flow id="JF1666" begin="1560" fromJunction="J3" toJunction="J2" end="1620" vehsPerHour="0.10772921171192198"/>
  <flow id="JF1667" begin="1560" fromJunction="J4" toJunction="J2" end="1620" vehsPerHour="121.34979844905394"/>
  <flow id="JF1668" begin="1560" fromJunction="J4" toJunction="J3" end="1620" vehsPerHour="62.69309702264977"/>
  <flow id="JF1669" begin="1620" fromJunction="J0" toJunction="J3" end="1680" vehsPerHour="42.45111362363725"/>
  <flow id="JF1670" begin="1620" fromJunction="J2" toJunction="J0" end="1680" vehsPerHour="99.79232010308874"/>
  <flow id="JF1671" begin="1620" fromJunction="J2" toJunction="J3" end="1680" vehsPerHour="103.54020145715684"/>
  <flow id="JF1672" begin="1620" fromJunction="J2" toJunction="J4" end="1680" vehsPerHour="130.0403984370852"/>
  <flow id="JF1673" begin="1620" fromJunction="J3" toJunction="J4" end="1680" vehsPerHour="44.02735599372939"/>
  <flow id="JF1674" begin="1620" fromJunction="J4" toJunction="J0" end="1680" vehsPerHour="11.157980709262556"/>
  <flow id="JF1675" begin="1620" fromJunction="J4" toJunction="J2" end="1680" vehsPerHour="35.55557120113582"/>
  <flow id="JF1676" begin="1680" fromJunction="J0" toJunction="J2" end="1740" vehsPerHour="100.75875927052554"/>
  <flow id="JF1677" begin="1680" fromJunction="J0" toJunction="J3" end="1740" vehsPerHour="123.44786638956015"/>
  <flow id="JF1678" begin="1680" fromJunction="J2" toJunction="J0" end="1740" vehsPerHour="113.17994187274574"/>
  <flow id="JF1679" begin="1680" fromJunction="J2" toJunction="J3" end="1740" vehsPerHour="11.163863180298785"/>
  <flow id="JF1680" begin="1680" fromJunction="J2" toJunction="J4" end="1740" vehsPerHour="76.35940334452258"/>
  <flow id="JF1681" begin="1680" fromJunction="J3" toJunction="J2" end="1740" vehsPerHour="131.4371967455633"/>
  <flow id="JF1682" begin="1680" fromJunction="J3" toJunction="J4" end="1740" vehsPerHour="23.64337318509399"/>
  <flow id="JF1683" begin="1680" fromJunction="J4" toJunction="J0" end="1740" vehsPerHour="8.06850998120753"/>
  <flow id="JF1684" begin="1740" fromJunction="J0" toJunction="J3" end="1800" vehsPerHour="39.080534089596895"/>
  <flow id="JF1685" begin="1740" fromJunction="J0" toJunction="J4" end="1800" vehsPerHour="21.119073955172176"/>
  <flow id="JF1686" begin="1740" fromJunction="J2" toJunction="J3" end="1800" vehsPerHour="18.249867733542658"/>
  <flow id="JF1687" begin="1740" fromJunction="J2" toJunction="J4" end="1800" vehsPerHour="121.71294340415943"/>
  <flow id="JF1688" begin="1740" fromJunction="J3" toJunction="J4" end="1800" vehsPerHour="95.72436141607437"/>
  <flow id="JF1689" begin="1740" fromJunction="J4" toJunction="J2" end="1800" vehsPerHour="51.98937750741114"/>
  <flow id="JF1690" begin="1740" fromJunction="J4" toJunction="J3" end="1800" vehsPerHour="50.418176971004804"/>
  <flow id="JF1691" begin="1800" fromJunction="J0" toJunction="J2" end="1860" vehsPerHour="74.30794663230584"/>
  <flow id="JF1692" begin="1800" fromJunction="J0" toJunction="J4" end="1860" vehsPerHour="48.20891386287701"/>
  <flow id="JF1693" begin="1800" fromJunction="J2" toJunction="J0" end="1860" vehsPerHour="124.58265158730727"/>
  <flow id="JF1694" begin="1800" fromJunction="J2" toJunction="J3" end="1860" vehsPerHour="74.98799725681148"/>
  <flow id="JF1695" begin="1800" fromJunction="J2" toJunction="J4" end="1860" vehsPerHour="99.34540403212137"/>
  <flow id="JF1696" begin="1800" fromJunction="J3" toJunction="J2" end="1860" vehsPerHour="83.52334101766614"/>
  <flow id="JF1697" begin="1800" fromJunction="J3" toJunction="J4" end="1860" vehsPerHour="4.576770663877982"/>
  <flow id="JF1698" begin="1800" fromJunction="J4" toJunction="J2" end="1860" vehsPerHour="102.68960937187258"/>
  <flow id="JF1699" begin="1800" fromJunction="J4" toJunction="J3" end="1860" vehsPerHour="118.83961326733497"/>
  <flow id="JF1700" begin="1860" fromJunction="J0" toJunction="J2" end="1920" vehsPerHour="135.76275978467925"/>
  <flow id="JF1701" begin="1860" fromJunction="J0" toJunction="J3" end="1920" vehsPerHour="64.12801258277855"/>
  <flow id="JF1702" begin="1860" fromJunction="J0" toJunction="J4" end="1920" vehsPerHour="46.76983309623033"/>
  <flow id="JF1703" begin="1860" fromJunction="J2" toJunction="J0" end="1920" vehsPerHour="26.94183703754969"/>