<?xml version="1.0" encoding="UTF-8"?>
<routes xmlns:xsi="http://www.w3.org/2001/XMLSchema-instance" xsi:noNamespaceSchemaLocation="http://sumo.dlr.de/xsd/routes_file.xsd">
  <flow id="JF4214" begin="0" fromJunction="J0" toJunction="J3" end="60" vehsPerHour="10.708804308133452"/>
  <flow id="JF4215" begin="0" fromJunction="J2" toJunction="J3" end="60" vehsPerHour="126.70455332041104"/>
  <flow id="JF4216" begin="0" fromJunction="J2" toJunction="J4" end="60" vehsPerHour="14.449383278128662"/>
  <flow id="JF4217" begin="0" fromJunction="J3" toJunction="J2" end="60" vehsPerHour="28.291590759226192"/>
  <flow id="JF4218" begin="0" fromJunction="J3" toJunction="J4" end="60" vehsPerHour="94.94605654936777"/>
  <flow id="JF4219" begin="0" fromJunction="J4" toJunction="J0" end="60" vehsPerHour="57.51485895632958"/>
  <flow id="JF4220" begin="0" fromJunction="J4" toJunction="J2" end="60" vehsPerHour="27.848054699337844"/>
  <flow id="JF4221" begin="0" fromJunction="J4" toJunction="J3" end="60" vehsPerHour="73.23251680926407"/>
  <flow id="JF4222" begin="60" fromJunction="J0" toJunction="J3" end="120" vehsPerHour="47.579614372663556"/>
  <flow id="JF4223" begin="60" fromJunction="J0" toJunction="J4" end="120" vehsPerHour="32.99756484983465"/>
  <flow id="JF4224" begin="60" fromJunction="J2" toJunction="J0" end="120" vehsPerHour="123.92022070490742"/>
  <flow id="JF4225" begin="60" fromJunction="J2" toJunction="J3" end="120" vehsPerHour="85.71692899346739"/>
  <flow id="JF4226" begin="60" fromJunction="J2" toJunction="J4" end="120" vehsPerHour="25.093892938237293"/>
  <flow id="JF4227" begin="60" fromJunction="J3" toJunction="J4" end="120" vehsPerHour="8.109180291088299"/>
  <flow id="JF4228" begin="60" fromJunction="J4" toJunction="J0" end="120" vehsPerHour="78.99265053067751"/>
  <flow id="JF4229" begin="60" fromJunction="J4" toJunction="J3" end="120" vehsPerHour="19.48209992953291"/>
  <flow id="JF4230" begin="120" fromJunction="J0" toJunction="J3" end="180" vehsPerHour="79.26857143076361"/>
  <flow id="JF4231" begin="120" fromJunction="J0" toJunction="J4" end="180" vehsPerHour="10.807681924579134"/>
  <flow id="JF4232" begin="120" fromJunction="J2" toJunction="J0" end="180" vehsPerHour="121.29477467183344"/>
  <flow id="JF4233" begin="120" fromJunction="J3" toJunction="J0" end="180" vehsPerHour="85.6188039917263"/>
  <flow id="JF4234" begin="120" fromJunction="J3" toJunction="J2" end="180" vehsPerHour="74.38047105178774"/>
  <flow id="JF4235" begin="120" fromJunction="J4" toJunction="J0" end="180" vehsPerHour="84.11323066608169"/>
  <flow id="JF4236" begin="120" fromJunction="J4" toJunction="J2" end="180" vehsPerHour="21.284968188210566"/>
  <flow id="JF4237" begin="120" fromJunction="J4" toJunction="J3" end="180" vehsPerHour="48.552404243936806"/>
  <flow id="JF4238" begin="180" fromJunction="J0" toJunction="J2" end="240" vehsPerHour="14.111807746666054"/>
  <flow id="JF4239" begin="180" fromJunction="J0" toJunction="J3" end="240" vehsPerHour="109.23424955109122"/>
  <flow id="JF4240" begin="180" fromJunction="J0" toJunction="J4" end="240" vehsPerHour="15.003946601921658"/>
  <flow id="JF4241" begin="180" fromJunction="J2" toJunction="J0" end="240" vehsPerHour="54.261781874607806"/>
  <flow id="JF4242" begin="180" fromJunction="J2" toJunction="J3" end="240" vehsPerHour="29.582281991594854"/>
  <flow id="JF4243" begin="180" fromJunction="J2" toJunction="J4" end="240" vehsPerHour="79.07452806330642"/>
  <flow id="JF4244" begin="180" fromJunction="J3" toJunction="J0" end="240" vehsPerHour="125.61901432156697"/>
  <flow id="JF4245" begin="180" fromJunction="J3" toJunction="J4" end="240" vehsPerHour="26.494667616763838"/>
  <flow id="JF4246" begin="180" fromJunction="J4" toJunction="J2" end="240" vehsPerHour="12.459158242585715"/>
  <flow id="JF4247" begin="180" fromJunction="J4" toJunction="J3" end="240" vehsPerHour="131.63045685418695"/>
  <flow id="JF4248" begin="240" fromJunction="J0" toJunction="J3" end="300" vehsPerHour="126.9512435136788"/>
  <flow id="JF4249" begin="240" fromJunction="J0" toJunction="J4" end="300" vehsPerHour="132.8102105085255"/>
  <flow id="JF4250" begin="240" fromJunction="J2" toJunction="J3" end="300" vehsPerHour="79.03331361205468"/>
  <flow id="JF4251" begin="240" fromJunction="J3" toJunction="J0" end="300" vehsPerHour="91.9017799026542"/>
  <flow id="JF4252" begin="240" fromJunction="J3" toJunction="J4" end="300" vehsPerHour="131.40246971425887"/>
  <flow id="JF4253" begin="240" fromJunction="J4" toJunction="J0" end="300" vehsPerHour="70.25006745206693"/>
  <flow id="JF4254" begin="300" fromJunction="J0" toJunction="J2" end="360" vehsPerHour="133.30940853665626"/>
  <flow id="JF4255" begin="300" fromJunction="J0" toJunction="J4" end="360" vehsPerHour="82.65517745815553"/>
  <flow id="JF4256" begin="300" fromJunction="J2" toJunction="J0" end="360" vehsPerHour="136.48385738429764"/>
  <flow id="JF4257" begin="300" fromJunction="J2" toJunction="J3" end="360" vehsPerHour="54.06743686013734"/>
  <flow id="JF4258" begin="300" fromJunction="J2" toJunction="J4" end="360" vehsPerHour="86.04821793904655"/>
  <flow id="JF4259" begin="300" fromJunction="J3" toJunction="J0" end="360" vehsPerHour="32.37661773494507"/>
  <flow id="JF4260" begin="300" fromJunction="J3" toJunction="J2" end="360" vehsPerHour="10.862923597607761"/>
  <flow id="JF4261" begin="300" fromJunction="J3" toJunction="J4" end="360" vehsPerHour="132.97190618148147"/>
  <flow id="JF4262" begin="360" fromJunction="J0" toJunction="J3" end="420" vehsPerHour="60.18770580662036"/>
  <flow id="JF4263" begin="360" fromJunction="J2" toJunction="J0" end="420" vehsPerHour="39.531395612257796"/>
  <flow id="JF4264" begin="360" fromJunction="J2" toJunction="J3" end="420" vehsPerHour="9.707425206860973"/>
  <flow id="JF4265" begin="360" fromJunction="J2" toJunction="J4" end="420" vehsPerHour="37.87859392844534"/>
  <flow id="JF4266" begin="360" fromJunction="J3" toJunction="J0" end="420" vehsPerHour="100.12857619597729"/>
  <flow id="JF4267" begin="360" fromJunction="J3" toJunction="J2" end="420" vehsPerHour="31.894588226734434"/>
  <flow id="JF4268" begin="360" fromJunction="J3" toJunction="J4" end="420" vehsPerHour="113.68337822741472"/>
  <flow id="JF4269" begin="360" fromJunction="J4" toJunction="J0" end="420" vehsPerHour="130.5312085431492"/>
  <flow id="JF4270" begin="360" fromJunction="J4" toJunction="J2" end="420" vehsPerHour="67.90950704563333"/>
  <flow id="JF4271" begin="420" fromJunction="J0" toJunction="J2" end="480" vehsPerHour="130.7543149380855"/>
  <flow id="JF4272" begin="420" fromJunction="J0" toJunction="J3" end="480" vehsPerHour="77.27677770174743"/>
  <flow id="JF4273" begin="420" fromJunction="J0" toJunction="J4" end="480" vehsPerHour="7.072302837154464"/>
  <flow id="JF4274" begin="420" fromJunction="J2" toJunction="J3" end="480" vehsPerHour="85.94378009598854"/>
  <flow id="JF4275" begin="420" fromJunction="J2" toJunction="J4" end="480" vehsPerHour="5.370453023893365"/>
  <flow id="JF4276" begin="420" fromJunction="J3" toJunction="J0" end="480" vehsPerHour="62.853187151604274"/>
  <flow id="JF4277" begin="420" fromJunction="J3" toJunction="J4" end="480" vehsPerHour="19.194076347155573"/>
  <flow id="JF4278" begin="420" fromJunction="J4" toJunction="J0" end="480" vehsPerHour="53.50230191346079"/>
  <flow id="JF4279" begin="420" fromJunction="J4" toJunction="J2" end="480" vehsPerHour="109.14121233578663"/>
  <flow id="JF4280" begin="420" fromJunction="J4" toJunction="J3" end="480" vehsPerHour="71.05444318473255"/>
  <flow id="JF4281" begin="480" fromJunction="J0" toJunction="J2" end="540" vehsPerHour="115.27036268042795"/>
  <flow id="JF4282" begin="480" fromJunction="J0" toJunction="J4" end="540" vehsPerHour="107.96103771049417"/>
  <flow id="JF4283" begin="480" fromJunction="J2" toJunction="J3" end="540" vehsPerHour="97.05552905978819"/>
  <flow id="JF4284" begin="480" fromJunction="J2" toJunction="J4" end="540" vehsPerHour="40.19739560549959"/>
  <flow id="JF4285" begin="480" fromJunction="J3" toJunction="J0" end="540" vehsPerHour="52.954730383349855"/>
  <flow id="JF4286" begin="480" fromJunction="J3" toJunction="J2" end="540" vehsPerHour="116.59039122634614"/>
  <flow id="JF4287" begin="480" fromJunction="J4" toJunction="J0" end="540" vehsPerHour="110.7336461512425"/>
  <flow id="JF4288" begin="480" fromJunction="J4" toJunction="J2" end="540" vehsPerHour="105.31428705348011"/>
  <flow id="JF4289" begin="480" fromJunction="J4" toJunction="J3" end="540" vehsPerHour="69.12136344053576"/>
  <flow id="JF4290" begin="540" fromJunction="J0" toJunction="J2" end="600" vehsPerHour="76.4472731520371"/>
  <flow id="JF4291" begin="540" fromJunction="J0" toJunction="J4" end="600" vehsPerHour="27.182995421570595"/>
  <flow id="JF4292" begin="540" fromJunction="J2" toJunction="J0" end="600" vehsPerHour="125.02645140315877"/>
  <flow id="JF4293" begin="540" fromJunction="J2" toJunction="J4" end="600" vehsPerHour="55.466198150866425"/>
  <flow id="JF4294" begin="540" fromJunction="J3" toJunction="J4" end="600" vehsPerHour="72.29022305008354"/>
  <flow id="JF4295" begin="540" fromJunction="J4" toJunction="J0" end="600" vehsPerHour="79.71064793251504"/>
  <flow id="JF4296" begin="540" fromJunction="J4" toJunction="J2" end="600" vehsPerHour="63.13680496961319"/>
  <flow id="JF4297" begin="540" fromJunction="J4" toJunction="J3" end="600" vehsPerHour="96.25879482521958"/>
  <flow id="JF4298" begin="600" fromJunction="J0" toJunction="J2" end="660" vehsPerHour="107.73352700312739"/>
  <flow id="JF4299" begin="600" fromJunction="J0" toJunction="J3" end="660" vehsPerHour="10.061061790330035"/>
  <flow id="JF4300" begin="600" fromJunction="J0" toJunction="J4" end="660" vehsPerHour="127.17361130355437"/>
  <flow id="JF4301" begin="600" fromJunction="J2" toJunction="J0" end="660" vehsPerHour="83.23097477049281"/>
  <flow id="JF4302" begin="600" fromJunction="J2" toJunction="J3" end="660" vehsPerHour="122.34068056319457"/>
  <flow id="JF4303" begin="600" fromJunction="J2" toJunction="J4" end="660" vehsPerHour="121.45648463838619"/>
  <flow id="JF4304" begin="600" fromJunction="J3" toJunction="J0" end="660" vehsPerHour="44.55147890304834"/>
  <flow id="JF4305" begin="600" fromJunction="J3" toJunction="J2" end="660" vehsPerHour="3.850733834571307"/>
  <flow id="JF4306" begin="600" fromJunction="J3" toJunction="J4" end="660" vehsPerHour="80.15390812884554"/>
  <flow id="JF4307" begin="600" fromJunction="J4" toJunction="J0" end="660" vehsPerHour="89.43467100752632"/>
  <flow id="JF4308" begin="600" fromJunction="J4" toJunction="J2" end="660" vehsPerHour="77.62412536826076"/>
  <flow id="JF4309" begin="600" fromJunction="J4" toJunction="J3" end="660" vehsPerHour="125.98777666705172"/>
  <flow id="JF4310" begin="660" fromJunction="J0" toJunction="J2" end="720" vehsPerHour="81.20672146895649"/>
  <flow id="JF4311" begin="660" fromJunction="J0" toJunction="J4" end="720" vehsPerHour="64.21526351658905"/>
  <flow id="JF4312" begin="660" fromJunction="J2" toJunction="J3" end="720" vehsPerHour="96.12088685657628"/>
  <flow id="JF4313" begin="660" fromJunction="J2" toJunction="J4" end="720" vehsPerHour="92.43345182081765"/>
  <flow id="JF4314" begin="660" fromJunction="J3" toJunction="J0" end="720" vehsPerHour="7.847079105303165"/>
  <flow id="JF4315" begin="660" fromJunction="J3" toJunction="J4" end="720" vehsPerHour="103.62022734746397"/>
  <flow id="JF4316" begin="660" fromJunction="J4" toJunction="J0" end="720" vehsPerHour="71.36649505511937"/>
  <flow id="JF4317" begin="660" fromJunction="J4" toJunction="J2" end="720" vehsPerHour="41.36845398334692"/>
  <flow id="JF4318" begin="660" fromJunction="J4" toJunction="J3" end="720" vehsPerHour="52.59827327361679"/>
  <flow id="JF4319" begin="720" fromJunction="J0" toJunction="J2" end="780" vehsPerHour="73.77015426473262"/>
  <flow id="JF4320" begin="720" fromJunction="J0" toJunction="J4" end="780" vehsPerHour="115.55075699842781"/>
  <flow id="JF4321" begin="720" fromJunction="J2" toJunction="J4" end="780" vehsPerHour="76.7781955156867"/>
  <flow id="JF4322" begin="720" fromJunction="J3" toJunction="J0" end="780" vehsPerHour="102.42581441194521"/>
  <flow id="JF4323" begin="720" fromJunction="J3" toJunction="J2" end="780" vehsPerHour="80.41688671282634"/>
  <flow id="JF4324" begin="720" fromJunction="J3" toJunction="J4" end="780" vehsPerHour="108.05180504930395"/>
  <flow id="JF4325" begin="720" fromJunction="J4" toJunction="J0" end="780" vehsPerHour="42.115606313046925"/>
  <flow id="JF4326" begin="720" fromJunction="J4" toJunction="J2" end="780" vehsPerHour="9.80838225716888"/>
  <flow id="JF4327" begin="720" fromJunction="J4" toJunction="J3" end="780" vehsPerHour="130.05785855238875"/>
  <flow id="JF4328" begin="780" fromJunction="J0" toJunction="J3" end="840" vehsPerHour="98.75218709208433"/>
  <flow id="JF4329" begin="780" fromJunction="J2" toJunction="J0" end="840" vehsPerHour="4.951580232682598"/>
  <flow id="JF4330" begin="780" fromJunction="J2" toJunction="J4" end="840" vehsPerHour="116.80390261243747"/>
  <flow id="JF4331" begin="780" fromJunction="J3" toJunction="J0" end="840" vehsPerHour="133.6319845449179"/>
  <flow id="JF4332" begin="780" fromJunction="J3" toJunction="J4" end="840" vehsPerHour="71.07186421390072"/>
  <flow id="JF4333" begin="780" fromJunction="J4" toJunction="J0" end="840" vehsPerHour="124.82032998586347"/>
  <flow id="JF4334" begin="780" fromJunction="J4" toJunction="J2" end="840" vehsPerHour="135.57682593860912"/>
  <flow id="JF4335" begin="780" fromJunction="J4" toJunction="J3" end="840" vehsPerHour="84.99329777267819"/>
  <flow id="JF4336" begin="840" fromJunction="J0" toJunction="J4" end="900" vehsPerHour="51.97605107878174"/>
  <flow id="JF4337" begin="840" fromJunction="J2" toJunction="J0" end="900" vehsPerHour="74.04611214257405"/>
  <flow id="JF4338" begin="840" fromJunction="J2" toJunction="J4" end="900" vehsPerHour="23.35842780800933"/>
  <flow id="JF4339" begin="840" fromJunction="J3" toJunction="J2" end="900" vehsPerHour="27.128155635348552"/>
  <flow id="JF4340" begin="840" fromJunction="J4" toJunction="J0" end="900" vehsPerHour="18.9503652870057"/>
  <flow id="JF4341" begin="840" fromJunction="J4" toJunction="J2" end="900" vehsPerHour="88.88779987024418"/>
  <flow id="JF4342" begin="840" fromJunction="J4" toJunction="J3" end="900" vehsPerHour="81.6629603729772"/>
  <flow id="JF4343" begin="900" fromJunction="J0" toJunction="J3" end="960" vehsPerHour="109.61614879450657"/>
  <flow id="JF4344" begin="900" fromJunction="J2" toJunction="J3" end="960" vehsPerHour="52.07629252189704"/>
  <flow id="JF4345" begin="900" fromJunction="J2" toJunction="J4" end="960" vehsPerHour="89.88790150506878"/>
  <flow id="JF4346" begin="900" fromJunction="J3" toJunction="J2" end="960" vehsPerHour="28.304362115254897"/>
  <flow id="JF4347" begin="900" fromJunction="J4" toJunction="J2" end="960" vehsPerHour="75.932473231458"/>
  <flow id="JF4348" begin="900" fromJunction="J4" toJunction="J3" end="960" vehsPerHour="42.8887757232856"/>
  <flow id="JF4349" begin="960" fromJunction="J0" toJunction="J2" end="1020" vehsPerHour="78.51081278127732"/>
  <flow id="JF4350" begin="960" fromJunction="J0" toJunction="J3" end="1020" vehsPerHour="120.08004524215116"/>
  <flow id="JF4351" begin="960" fromJunction="J0" toJunction="J4" end="1020" vehsPerHour="104.76563680067713"/>
  <flow id="JF4352" begin="960" fromJunction="J2" toJunction="J3" end="1020" vehsPerHour="101.22696575162037"/>
  <flow id="JF4353" begin="960" fromJunction="J2" toJunction="J4" end="1020" vehsPerHour="44.232726200341865"/>
  <flow id="JF4354" begin="960" fromJunction="J3" toJunction="J0" end="1020" vehsPerHour="37.9580344074184"/>
  <flow id="JF4355" begin="960" fromJunction="J3" toJunction="J2" end="1020" vehsPerHour="7.753427181727318"/>
  <flow id="JF4356" begin="960" fromJunction="J3" toJunction="J4" end="1020" vehsPerHour="43.84673220042034"/>
  <flow id="JF4357" begin="960" fromJunction="J4" toJunction="J0" end="1020" vehsPerHour="40.71700924246041"/>
  <flow id="JF4358" begin="960" fromJunction="J4" toJunction="J2" end="1020" vehsPerHour="24.93446498418082"/>
  <flow id="JF4359" begin="1020" fromJunction="J0" toJunction="J2" end="1080" vehsPerHour="57.1858674468349"/>
  <flow id="JF4360" begin="1020" fromJunction="J0" toJunction="J3" end="1080" vehsPerHour="109.72399341595549"/>
  <flow id="JF4361" begin="1020" fromJunction="J0" toJunction="J4" end="1080" vehsPerHour="122.26636037218373"/>
  <flow id="JF4362" begin="1020" fromJunction="J2" toJunction="J0" end="1080" vehsPerHour="37.10926722387318"/>
  <flow id="JF4363" begin="1020" fromJunction="J2" toJunction="J3" end="1080" vehsPerHour="123.29381431651638"/>
  <flow id="JF4364" begin="1020" fromJunction="J3" toJunction="J2" end="1080" vehsPerHour="0.02802139263988286"/>
  <flow id="JF4365" begin="1020" fromJunction="J4" toJunction="J2" end="1080" vehsPerHour="94.4334735567815"/>
  <flow id="JF4366" begin="1020" fromJunction="J4" toJunction="J3" end="1080" vehsPerHour="49.00097711216436"/>
  <flow id="JF4367" begin="1080" fromJunction="J0" toJunction="J3" end="1140" vehsPerHour="5.431414239325758"/>
  <flow id="JF4368" begin="1080" fromJunction="J2" toJunction="J3" end="1140" vehsPerHour="11.006746380227902"/>
  <flow id="JF4369" begin="1080" fromJunction="J2" toJunction="J4" end="1140" vehsPerHour="110.65533697184418"/>
  <flow id="JF4370" begin="1080" fromJunction="J4" toJunction="J0" end="1140" vehsPerHour="0.3943660640933854"/>
  <flow id="JF4371" begin="1080" fromJunction="J4" toJunction="J2" end="1140" vehsPerHour="16.518326059300946"/>
  <flow id="JF4372" begin="1080" fromJunction="J4" toJunction="J3" end="1140" vehsPerHour="23.98120314233374"/>
  <flow id="JF4373" begin="1140" fromJunction="J0" toJunction="J2" end="1200" vehsPerHour="113.50181468721965"/>
  <flow id="JF4374" begin="1140" fromJunction="J0" toJunction="J3" end="1200" vehsPerHour="28.9059196958056"/>
  <flow id="JF4375" begin="1140" fromJunction="J0" toJunction="J4" end="1200" vehsPerHour="76.7606262339757"/>
  <flow id="JF4376" begin="1140" fromJunction="J2" toJunction="J0" end="1200" vehsPerHour="132.12858336378508"/>
  <flow id="JF4377" begin="1140" fromJunction="J2" toJunction="J3" end="1200" vehsPerHour="48.12849794715584"/>
  <flow id="JF4378" begin="1140" fromJunction="J3" toJunction="J0" end="1200" vehsPerHour="91.83370388901969"/>
  <flow id="JF4379" begin="1140" fromJunction="J4" toJunction="J0" end="1200" vehsPerHour="96.37574175969213"/>
  <flow id="JF4380" begin="1140" fromJunction="J4" toJunction="J3" end="1200" vehsPerHour="87.86145142974782"/>
  <flow id="JF4381" begin="1200" fromJunction="J0" toJunction="J2" end="1260" vehsPerHour="3.914046513762137"/>
  <flow id="JF4382" begin="1200" fromJunction="J0" toJunction="J3" end="1260" vehsPerHour="122.9866101609102"/>
  <flow id="JF4383" begin="1200" fromJunction="J2" toJunction="J0" end="1260" vehsPerHour="69.05471876499278"/>
  <flow id="JF4384" begin="1200" fromJunction="J2" toJunction="J3" end="1260" vehsPerHour="123.63852155230288"/>
  <flow id="JF4385" begin="1200" fromJunction="J3" toJunction="J0" end="1260" vehsPerHour="106.35243810829088"/>
  <flow id="JF4386" begin="1200" fromJunction="J3" toJunction="J2" end="1260" vehsPerHour="42.53026589321836"/>
  <flow id="JF4387" begin="1200" fromJunction="J3" toJunction="J4" end="1260" vehsPerHour="74.66280458885224"/>
  <flow id="JF4388" begin="1200" fromJunction="J4" toJunction="J0" end="1260" vehsPerHour="75.20524418162172"/>
  <flow id="JF4389" begin="1200" fromJunction="J4" toJunction="J3" end="1260" vehsPerHour="72.7659426219712"/>
  <flow id="JF4390" begin="1260" fromJunction="J0" toJunction="J2" end="1320" vehsPerHour="59.966805154093215"/>
  <flow id="JF4391" begin="1260" fromJunction="J0" toJunction="J4" end="1320" vehsPerHour="128.7390925131189"/>
  <flow id="JF4392" begin="1260" fromJunction="J2" toJunction="J0" end="1320" vehsPerHour="95.3425741857804"/>
  <flow id="JF4393" begin="1260" fromJunction="J2" toJunction="J4" end="1320" vehsPerHour="47.78461772652431"/>
  <flow id="JF4394" begin="1260" fromJunction="J3" toJunction="J0" end="1320" vehsPerHour="6.767798874083235"/>
  <flow id="JF4395" begin="1260" fromJunction="J3" toJunction="J4" end="1320" vehsPerHour="77.75517741655936"/>
  <flow id="JF4396" begin="1260" fromJunction="J4" toJunction="J0" end="1320" vehsPerHour="84.75877134459196"/>
  <flow id="JF4397" begin="1260" fromJunction="J4" toJunction="J2" end="1320" vehsPerHour="80.55584908169854"/>
  <flow id="JF4398" begin="1320" fromJunction="J0" toJunction="J2" end="1380" vehsPerHour="4.220237635821228"/>
  <flow id="JF4399" begin="1320" fromJunction="J0" toJunction="J3" end="1380" vehsPerHour="54.95954021389182"/>
  <flow id="JF4400" begin="1320" fromJunction="J0" toJunction="J4" end="1380" vehsPerHour="111.4052858014927"/>
  <flow id="JF4401" begin="1320" fromJunction="J2" toJunction="J0" end="1380" vehsPerHour="117.75303152005088"/>
  <flow id="JF4402" begin="1320" fromJunction="J2" toJunction="J3" end="1380" vehsPerHour="94.49872743990174"/>
  <flow id="JF4403" begin="1320" fromJunction="J2" toJunction="J4" end="1380" vehsPerHour="83.62372788351124"/>
  <flow id="JF4404" begin="1320" fromJunction="J3" toJunction="J0" end="1380" vehsPerHour="119.84969709935437"/>
  <flow id="JF4405" begin="1320" fromJunction="J3" toJunction="J2" end="1380" vehsPerHour="23.305360704122705"/>
  <flow id="JF4406" begin="1320" fromJunction="J3" toJunction="J4" end="1380" vehsPerHour="80.27316589417852"/>
  <flow id="JF4407" begin="1320" fromJunction="J4" toJunction="J2" end="1380" vehsPerHour="126.666083922812"/>
  <flow id="JF4408" begin="1320" fromJunction="J4" toJunction="J3" end="1380" vehsPerHour="39.98930538124006"/>
  <flow id="JF4409" begin="1380" fromJunction="J0" toJunction="J2" end="1440" vehsPerHour="21.168766666755307"/>
  <flow id="JF4410" begin="1380" fromJunction="J0" toJunction="J3" end="1440" vehsPerHour="68.2376041632278"/>
  <flow id="JF4411" begin="1380" fromJunction="J0" toJunction="J4" end="1440" vehsPerHour="10.670982659565935"/>
  <flow id="JF4412" begin="1380" fromJunction="J2" toJunction="J0" end="1440" vehsPerHour="119.41364593806541"/>
  <flow id="JF4413" begin="1380" fromJunction="J2" toJunction="J4" end="1440" vehsPerHour="115.91726523943574"/>
  <flow id="JF4414" begin="1380" fromJunction="J3" toJunction="J0" end="1440" vehsPerHour="44.76166113243247"/>
  <flow id="JF4415" begin="1380" fromJunction="J3" toJunction="J2" end="1440" vehsPerHour="40.69004424220496"/>
  <flow id="JF4416" begin="1380" fromJunction="J4" toJunction="J0" end="1440" vehsPerHour="118.10241137878002"/>
  <flow id="JF4417" begin="1380" fromJunction="J4" toJunction="J2" end="1440" vehsPerHour="2.5674078297493885"/>
  <flow id="JF4418" begin="1440" fromJunction="J0" toJunction="J2" end="1500" vehsPerHour="4.215725323391179"/>
  <flow id="JF4419" begin="1440" fromJunction="J0" toJunction="J3" end="1500" vehsPerHour="37.94553853991475"/>
  <flow id="JF4420" begin="1440" fromJunction="J2" toJunction="J3" end="1500" vehsPerHour="35.713553053795515"/>
  <flow id="JF4421" begin="1440" fromJunction="J2" toJunction="J4" end="1500" vehsPerHour="6.821490400055724"/>
  <flow id="JF4422" begin="1440" fromJunction="J3" toJunction="J0" end="1500" vehsPerHour="71.50629456828148"/>
  <flow id="JF4423" begin="1440" fromJunction="J3" toJunction="J2" end="1500" vehsPerHour="57.3974362803545"/>
  <flow id="JF4424" begin="1440" fromJunction="J3" toJunction="J4" end="1500" vehsPerHour="55.09307705878137"/>
  <flow id="JF4425" begin="1440" fromJunction="J4" toJunction="J0" end="1500" vehsPerHour="113.87812597117906"/>
  <flow id="JF4426" begin="1500" fromJunction="J0" toJunction="J2" end="1560" vehsPerHour="1.9759046923066348"/>
  <flow id="JF4427" begin="1500" fromJunction="J0" toJunction="J3" end="1560" vehsPerHour="83.35480726466535"/>
  <flow id="JF4428" begin="1500" fromJunction="J0" toJunction="J4" end="1560" vehsPerHour="133.593018372111"/>
  <flow id="JF4429" begin="1500" fromJunction="J2" toJunction="J4" end="1560" vehsPerHour="38.724484843887154"/>
  <flow id="JF4430" begin="1500" fromJunction="J3" toJunction="J2" end="1560" vehsPerHour="30.64902031835548"/>
  <flow id="JF4431" begin="1500" fromJunction="J4" toJunction="J0" end="1560" vehsPerHour="5.338849674653176"/>
  <flow id="JF4432" begin="1500" fromJunction="J4" toJunction="J3" end="1560" vehsPerHour="38.22419654935321"/>
  <flow id="JF4433" begin="1560" fromJunction="J2" toJunction="J0" end="1620" vehsPerHour="61.902189471781355"/>
  <flow id="JF4434" begin="1560" fromJunction="J2" toJunction="J3" end="1620" vehsPerHour="43.86723469888574"/>
  <flow id="JF4435" begin="1560" fromJunction="J2" toJunction="J4" end="1620" vehsPerHour="47.5991616352001"/>
  <flow id="JF4436" begin="1560" fromJunction="J3" toJunction="J0" end="1620" vehsPerHour="31.407976085181662"/>
  <flow id="JF4437" begin="1560" fromJunction="J3" toJunction="J2" end="1620" vehsPerHour="123.80525225552724"/>
  <flow id="JF4438" begin="1560" fromJunction="J3" toJunction="J4" end="1620" vehsPerHour="89.93189004149782"/>
  <flow id="JF4439" begin="1560" fromJunction="J4" toJunction="J2" end="1620" vehsPerHour="127.41277893936923"/>
  <flow id="JF4440" begin="1560" fromJunction="J4" toJunction="J3" end="1620" vehsPerHour="103.82893806074253"/>
  <flow id="JF4441" begin="1620" fromJunction="J0" toJunction="J2" end="1680" vehsPerHour="108.82824167513029"/>
  <flow id="JF4442" begin="1620" fromJunction="J3" toJunction="J0" end="1680" vehsPerHour="60.69226896782866"/>
  <flow id="JF4443" begin="1620" fromJunction="J3" toJunction="J4" end="1680" vehsPerHour="5.091433072339388"/>
  <flow id="JF4444" begin="1620" fromJunction="J4" toJunction="J0" end="1680" vehsPerHour="5.4717496360221105"/>
  <flow id="JF4445" begin="1620" fromJunction="J4" toJunction="J2" end="1680" vehsPerHour="119.74945990605582"/>
  <flow id="JF4446" begin="1680" fromJunction="J0" toJunction="J2" end="1740" vehsPerHour="10.744675314220016"/>
  <flow id="JF4447" begin="1680" fromJunction="J0" toJunction="J3" end="1740" vehsPerHour="1.7379101281244156"/>
  <flow id="JF4448" begin="1680" fromJunction="J2" toJunction="J4" end="1740" vehsPerHour="48.07555883954257"/>
  <flow id="JF4449" begin="1680" fromJunction="J3" toJunction="J0" end="1740" vehsPerHour="3.3069160632901538"/>
  <flow id="JF4450" begin="1680" fromJunction="J3" toJunction="J2" end="1740" vehsPerHour="25.362438152739756"/>
  <flow id="JF4451" begin="1680" fromJunction="J3" toJunction="J4" end="1740" vehsPerHour="121.27201263503224"/>
  <flow id="JF4452" begin="1680" fromJunction="J4" toJunction="J0" end="1740" vehsPerHour="105.5420606395999"/>
  <flow id="JF4453" begin="1680" fromJunction="J4" toJunction="J2" end="1740" vehsPerHour="65.8873022737397"/>
  <flow id="JF4454" begin="1680" fromJunction="J4" toJunction="J3" end="1740" vehsPerHour="84.61945253958058"/>
  <flow id="JF4455" begin="1740" fromJunction="J0" toJunction="J2" end="1800" vehsPerHour="95.06938058655412"/>
  <flow id="JF4456" begin="1740" fromJunction="J0" toJunction="J3" end="1800" vehsPerHour="46.30598798761113"/>
  <flow id="JF4457" begin="1740" fromJunction="J0" toJunction="J4" end="1800" vehsPerHour="42.53624692205288"/>
  <flow id="JF4458" begin="1740" fromJunction="J2" toJunction="J0" end="1800" vehsPerHour="1.0624418815861119"/>
  <flow id="JF4459" begin="1740" fromJunction="J2" toJunction="J3" end="1800" vehsPerHour="43.41166607027306"/>
  <flow id="JF4460" begin="1740" fromJunction="J2" toJunction="J4" end="1800" vehsPerHour="55.3505322387519"/>
  <flow id="JF4461" begin="1740" fromJunction="J3" toJunction="J2" end="1800" vehsPerHour="135.28388668257347"/>
  <flow id="JF4462" begin="1740" fromJunction="J4" toJunction="J0" end="1800" vehsPerHour="128.20396300433578"/>
  <flow id="JF4463" begin="1740" fromJunction="J4" toJunction="J3" end="1800" vehsPerHour="44.337649556512055"/>
  <flow id="JF4464" begin="1800" fromJunction="J0" toJunction="J2" end="1860" vehsPerHour="95.76893941530389"/>
  <flow id="JF4465" begin="1800" fromJunction="J0" toJunction="J3" end="1860" vehsPerHour="58.70382090293333"/>
  <flow id="JF4466" begin="1800" fromJunction="J0" toJunction="J4" end="1860" vehsPerHour="105.17491824805721"/>
  <flow id="JF4467" begin="1800" fromJunction="J2" toJunction="J0" end="1860" vehsPerHour="37.597835041033235"/>
  <flow id="JF4468" begin="1800" fromJunction="J2" toJunction="J3" end="1860" vehsPerHour="91.26163165810804"/>
  <flow id="JF4469" begin="1800" fromJunction="J2" toJunction="J4" end="1860" vehsPerHour="36.836945641415056"/>
  <flow id="JF4470" begin="1800" fromJunction="J3" toJunction="J2" end="1860" vehsPerHour="24.361647957999494"/>
  <flow id="JF4471" begin="1800" fromJunction="J3" toJunction="J4" end="1860" vehsPerHour="114.5089004026218"/>
  <flow id="JF4472" begin="1800" fromJunction="J4" toJunction="J0" end="1860" vehsPerHour="109.93415498254154"/>
  <flow id="JF4473" begin="1800" fromJunction="J4" toJunction="J2" end="1860" vehsPerHour="2.5108595938993488"/>
  <flow id="JF4474" begin="1800" fromJunction="J4" toJunction="J3" end="1860" vehsPerHour="29.560408027031944"/>
  <flow id="JF4475" begin="1860" fromJunction="J0" toJunction="J2" end="1920" vehsPerHour="9.901899778299887"/>
  <flow id="JF4476" begin="1860" fromJunction="J0" toJunction="J3" end="1920" vehsPerHour="133.7184393198278"/>
  <flow id="JF4477" begin="1860" fromJunction="J0" toJunction="J4" end="1920" vehsPerHour="53.930327130781066"/>
  <flow id="JF4478" begin="1860" fromJunction="J2" toJunction="J0" end="1920" vehsPerHour="114.97964092136262"/>
  <flow id="JF4479" begin="1860" fromJunction="J2" toJunction="J3" end="1920" vehsPerHour="5.23695943528127"/>
  <flow id="JF4480" begin="1860" fromJunction="J3" toJunction="J0" end="1920" vehsPerHour="80.39179868999426"/>
  <flow id="JF4481" begin="1860" fromJunction="J3" toJunction="J2" end="1920" vehsPerHour="36.75930944853925"/>