<?xml version="1.0" encoding="UTF-8"?>
<routes xmlns:xsi="http://www.w3.org/2001/XMLSchema-instance" xsi:noNamespaceSchemaLocation="http://sumo.dlr.de/xsd/routes_file.xsd">
  <flow id="JF11103" begin="0" fromJunction="J0" toJunction="J3" end="60" vehsPerHour="85.88591094470799"/>
  <flow id="JF11104" begin="0" fromJunction="J0" toJunction="J4" end="60" vehsPerHour="60.504970079153374"/>
  <flow id="JF11105" begin="0" fromJunction="J3" toJunction="J0" end="60" vehsPerHour="125.60415908264133"/>
  <flow id="JF11106" begin="0" fromJunction="J3" toJunction="J2" end="60" vehsPerHour="48.96496968479548"/>
  <flow id="JF11107" begin="0" fromJunction="J3" toJunction="J4" end="60" vehsPerHour="126.71797687457925"/>
  <flow id="JF11108" begin="60" fromJunction="J0" toJunction="J2" end="120" vehsPerHour="17.329003188980103"/>
  <flow id="JF11109" begin="60" fromJunction="J0" toJunction="J3" end="120" vehsPerHour="54.63089432545653"/>
  <flow id="JF11110" begin="60" fromJunction="J2" toJunction="J0" end="120" vehsPerHour="113.22011017217673"/>
  <flow id="JF11111" begin="60" fromJunction="J2" toJunction="J3" end="120" vehsPerHour="99.0031838336151"/>
  <flow id="JF11112" begin="60" fromJunction="J2" toJunction="J4" end="120" vehsPerHour="52.583760670270244"/>
  <flow id="JF11113" begin="60" fromJunction="J3" toJunction="J0" end="120" vehsPerHour="89.66142229936652"/>
  <flow id="JF11114" begin="60" fromJunction="J4" toJunction="J0" end="120" vehsPerHour="127.56866899449246"/>
  <flow id="JF11115" begin="60" fromJunction="J4" toJunction="J2" end="120" vehsPerHour="46.251977224402395"/>
  <flow id="JF11116" begin="60" fromJunction="J4" toJunction="J3" end="120" vehsPerHour="57.55590018981309"/>
  <flow id="JF11117" begin="120" fromJunction="J0" toJunction="J2" end="180" vehsPerHour="107.26877996307611"/>
  <flow id="JF11118" begin="120" fromJunction="J0" toJunction="J3" end="180" vehsPerHour="61.32406905359759"/>
  <flow id="JF11119" begin="120" fromJunction="J0" toJunction="J4" end="180" vehsPerHour="12.476854108521895"/>
  <flow id="JF11120" begin="120" fromJunction="J2" toJunction="J3" end="180" vehsPerHour="88.66432483473156"/>
  <flow id="JF11121" begin="120" fromJunction="J3" toJunction="J2" end="180" vehsPerHour="133.3906644818011"/>
  <flow id="JF11122" begin="120" fromJunction="J3" toJunction="J4" end="180" vehsPerHour="78.2138385817028"/>
  <flow id="JF11123" begin="120" fromJunction="J4" toJunction="J2" end="180" vehsPerHour="30.08189102688566"/>
  <flow id="JF11124" begin="120" fromJunction="J4" toJunction="J3" end="180" vehsPerHour="27.960651010894"/>
  <flow id="JF11125" begin="180" fromJunction="J0" toJunction="J2" end="240" vehsPerHour="68.50854503745904"/>
  <flow id="JF11126" begin="180" fromJunction="J0" toJunction="J3" end="240" vehsPerHour="5.673770669645046"/>
  <flow id="JF11127" begin="180" fromJunction="J0" toJunction="J4" end="240" vehsPerHour="121.71277453677527"/>
  <flow id="JF11128" begin="180" fromJunction="J2" toJunction="J3" end="240" vehsPerHour="125.17299414458296"/>
  <flow id="JF11129" begin="180" fromJunction="J2" toJunction="J4" end="240" vehsPerHour="54.41786762480553"/>
  <flow id="JF11130" begin="180" fromJunction="J3" toJunction="J0" end="240" vehsPerHour="46.834580095406686"/>
  <flow id="JF11131" begin="180" fromJunction="J3" toJunction="J4" end="240" vehsPerHour="65.60148930036657"/>
  <flow id="JF11132" begin="180" fromJunction="J4" toJunction="J0" end="240" vehsPerHour="51.57162108944946"/>
  <flow id="JF11133" begin="180" fromJunction="J4" toJunction="J2" end="240" vehsPerHour="63.56646346848931"/>
  <flow id="JF11134" begin="180" fromJunction="J4" toJunction="J3" end="240" vehsPerHour="89.02510157278617"/>
  <flow id="JF11135" begin="240" fromJunction="J0" toJunction="J2" end="300" vehsPerHour="61.05313350269738"/>
  <flow id="JF11136" begin="240" fromJunction="J0" toJunction="J3" end="300" vehsPerHour="81.45116638155864"/>
  <flow id="JF11137" begin="240" fromJunction="J0" toJunction="J4" end="300" vehsPerHour="6.251284370967401"/>
  <flow id="JF11138" begin="240" fromJunction="J2" toJunction="J0" end="300" vehsPerHour="3.1381639431118717"/>
  <flow id="JF11139" begin="240" fromJunction="J2" toJunction="J3" end="300" vehsPerHour="39.402875119113695"/>
  <flow id="JF11140" begin="240" fromJunction="J2" toJunction="J4" end="300" vehsPerHour="92.66125483984878"/>
  <flow id="JF11141" begin="240" fromJunction="J3" toJunction="J0" end="300" vehsPerHour="100.3512716921087"/>
  <flow id="JF11142" begin="240" fromJunction="J3" toJunction="J2" end="300" vehsPerHour="15.668276085046093"/>
  <flow id="JF11143" begin="240" fromJunction="J3" toJunction="J4" end="300" vehsPerHour="96.29333832385781"/>
  <flow id="JF11144" begin="240" fromJunction="J4" toJunction="J0" end="300" vehsPerHour="70.44770623015148"/>
  <flow id="JF11145" begin="300" fromJunction="J0" toJunction="J2" end="360" vehsPerHour="71.46254930437223"/>
  <flow id="JF11146" begin="300" fromJunction="J0" toJunction="J3" end="360" vehsPerHour="117.70049383797274"/>
  <flow id="JF11147" begin="300" fromJunction="J2" toJunction="J0" end="360" vehsPerHour="112.99651998448542"/>
  <flow id="JF11148" begin="300" fromJunction="J3" toJunction="J0" end="360" vehsPerHour="65.6616727083471"/>
  <flow id="JF11149" begin="300" fromJunction="J3" toJunction="J2" end="360" vehsPerHour="132.62036888382636"/>
  <flow id="JF11150" begin="300" fromJunction="J3" toJunction="J4" end="360" vehsPerHour="3.5273870651754153"/>
  <flow id="JF11151" begin="300" fromJunction="J4" toJunction="J0" end="360" vehsPerHour="49.49799569734584"/>
  <flow id="JF11152" begin="300" fromJunction="J4" toJunction="J2" end="360" vehsPerHour="57.208644844067635"/>
  <flow id="JF11153" begin="360" fromJunction="J0" toJunction="J2" end="420" vehsPerHour="11.43944264765317"/>
  <flow id="JF11154" begin="360" fromJunction="J0" toJunction="J4" end="420" vehsPerHour="134.02702755507437"/>
  <flow id="JF11155" begin="360" fromJunction="J2" toJunction="J3" end="420" vehsPerHour="68.992718221939"/>
  <flow id="JF11156" begin="360" fromJunction="J2" toJunction="J4" end="420" vehsPerHour="129.03009451872694"/>
  <flow id="JF11157" begin="360" fromJunction="J3" toJunction="J2" end="420" vehsPerHour="121.00163105967096"/>
  <flow id="JF11158" begin="360" fromJunction="J4" toJunction="J2" end="420" vehsPerHour="91.9892148086309"/>
  <flow id="JF11159" begin="360" fromJunction="J4" toJunction="J3" end="420" vehsPerHour="24.458037348186252"/>
  <flow id="JF11160" begin="420" fromJunction="J0" toJunction="J4" end="480" vehsPerHour="88.58704329196289"/>
  <flow id="JF11161" begin="420" fromJunction="J2" toJunction="J4" end="480" vehsPerHour="59.13766642737668"/>
  <flow id="JF11162" begin="420" fromJunction="J3" toJunction="J0" end="480" vehsPerHour="54.88131517707181"/>
  <flow id="JF11163" begin="420" fromJunction="J4" toJunction="J2" end="480" vehsPerHour="8.889843129440521"/>
  <flow id="JF11164" begin="420" fromJunction="J4" toJunction="J3" end="480" vehsPerHour="32.3164443821049"/>
  <flow id="JF11165" begin="480" fromJunction="J0" toJunction="J2" end="540" vehsPerHour="41.903469701344825"/>
  <flow id="JF11166" begin="480" fromJunction="J0" toJunction="J4" end="540" vehsPerHour="62.33611898071911"/>
  <flow id="JF11167" begin="480" fromJunction="J2" toJunction="J0" end="540" vehsPerHour="48.62920500330648"/>
  <flow id="JF11168" begin="480" fromJunction="J2" toJunction="J3" end="540" vehsPerHour="126.73281112755298"/>
  <flow id="JF11169" begin="480" fromJunction="J2" toJunction="J4" end="540" vehsPerHour="3.5425187982516597"/>
  <flow id="JF11170" begin="480" fromJunction="J3" toJunction="J0" end="540" vehsPerHour="129.22802109337226"/>
  <flow id="JF11171" begin="480" fromJunction="J3" toJunction="J2" end="540" vehsPerHour="61.35544444194219"/>
  <flow id="JF11172" begin="480" fromJunction="J3" toJunction="J4" end="540" vehsPerHour="49.429333754938"/>
  <flow id="JF11173" begin="480" fromJunction="J4" toJunction="J2" end="540" vehsPerHour="92.32751193074897"/>
  <flow id="JF11174" begin="480" fromJunction="J4" toJunction="J3" end="540" vehsPerHour="57.74637784069848"/>
  <flow id="JF11175" begin="540" fromJunction="J0" toJunction="J3" end="600" vehsPerHour="130.0608706321221"/>
  <flow id="JF11176" begin="540" fromJunction="J0" toJunction="J4" end="600" vehsPerHour="61.746551298914184"/>
  <flow id="JF11177" begin="540" fromJunction="J2" toJunction="J0" end="600" vehsPerHour="44.013684440739"/>
  <flow id="JF11178" begin="540" fromJunction="J2" toJunction="J3" end="600" vehsPerHour="16.79094188727008"/>
  <flow id="JF11179" begin="540" fromJunction="J3" toJunction="J0" end="600" vehsPerHour="87.13900509134334"/>
  <flow id="JF11180" begin="540" fromJunction="J3" toJunction="J2" end="600" vehsPerHour="40.31511843681917"/>
  <flow id="JF11181" begin="540" fromJunction="J3" toJunction="J4" end="600" vehsPerHour="18.0471925281692"/>
  <flow id="JF11182" begin="540" fromJunction="J4" toJunction="J2" end="600" vehsPerHour="136.86419040888464"/>
  <flow id="JF11183" begin="540" fromJunction="J4" toJunction="J3" end="600" vehsPerHour="54.238633961784046"/>
  <flow id="JF11184" begin="600" fromJunction="J0" toJunction="J2" end="660" vehsPerHour="121.30164325002073"/>
  <flow id="JF11185" begin="600" fromJunction="J0" toJunction="J3" end="660" vehsPerHour="127.763431377351"/>
  <flow id="JF11186" begin="600" fromJunction="J0" toJunction="J4" end="660" vehsPerHour="28.545714656251516"/>
  <flow id="JF11187" begin="600" fromJunction="J2" toJunction="J0" end="660" vehsPerHour="128.68426728442364"/>
  <flow id="JF11188" begin="600" fromJunction="J2" toJunction="J3" end="660" vehsPerHour="9.044116666733851"/>
  <flow id="JF11189" begin="600" fromJunction="J3" toJunction="J0" end="660" vehsPerHour="103.2016320677992"/>
  <flow id="JF11190" begin="600" fromJunction="J3" toJunction="J2" end="660" vehsPerHour="47.94638648898945"/>
  <flow id="JF11191" begin="600" fromJunction="J3" toJunction="J4" end="660" vehsPerHour="4.429506549315782"/>
  <flow id="JF11192" begin="660" fromJunction="J0" toJunction="J2" end="720" vehsPerHour="94.06073785669136"/>
  <flow id="JF11193" begin="660" fromJunction="J0" toJunction="J3" end="720" vehsPerHour="11.937552203051728"/>
  <flow id="JF11194" begin="660" fromJunction="J2" toJunction="J0" end="720" vehsPerHour="39.95929234410911"/>
  <flow id="JF11195" begin="660" fromJunction="J2" toJunction="J3" end="720" vehsPerHour="53.66098165673389"/>
  <flow id="JF11196" begin="660" fromJunction="J2" toJunction="J4" end="720" vehsPerHour="105.43987551910477"/>
  <flow id="JF11197" begin="660" fromJunction="J3" toJunction="J0" end="720" vehsPerHour="118.13963271633283"/>
  <flow id="JF11198" begin="660" fromJunction="J3" toJunction="J4" end="720" vehsPerHour="132.58087073511302"/>
  <flow id="JF11199" begin="660" fromJunction="J4" toJunction="J0" end="720" vehsPerHour="19.968103789006673"/>
  <flow id="JF11200" begin="660" fromJunction="J4" toJunction="J2" end="720" vehsPerHour="42.078016865792605"/>
  <flow id="JF11201" begin="660" fromJunction="J4" toJunction="J3" end="720" vehsPerHour="15.83194551723711"/>
  <flow id="JF11202" begin="720" fromJunction="J0" toJunction="J2" end="780" vehsPerHour="104.51688479684883"/>
  <flow id="JF11203" begin="720" fromJunction="J0" toJunction="J3" end="780" vehsPerHour="90.22790760120273"/>
  <flow id="JF11204" begin="720" fromJunction="J0" toJunction="J4" end="780" vehsPerHour="64.610510986182"/>
  <flow id="JF11205" begin="720" fromJunction="J2" toJunction="J0" end="780" vehsPerHour="71.18958273151242"/>
  <flow id="JF11206" begin="720" fromJunction="J2" toJunction="J4" end="780" vehsPerHour="7.737724173747598"/>
  <flow id="JF11207" begin="720" fromJunction="J3" toJunction="J0" end="780" vehsPerHour="47.1719953187728"/>
  <flow id="JF11208" begin="720" fromJunction="J3" toJunction="J2" end="780" vehsPerHour="118.45464249093703"/>
  <flow id="JF11209" begin="720" fromJunction="J3" toJunction="J4" end="780" vehsPerHour="95.74773055009227"/>
  <flow id="JF11210" begin="720" fromJunction="J4" toJunction="J2" end="780" vehsPerHour="52.16162000222789"/>
  <flow id="JF11211" begin="720" fromJunction="J4" toJunction="J3" end="780" vehsPerHour="14.465978533070698"/>
  <flow id="JF11212" begin="780" fromJunction="J0" toJunction="J3" end="840" vehsPerHour="85.3176517521255"/>
  <flow id="JF11213" begin="780" fromJunction="J0" toJunction="J4" end="840" vehsPerHour="118.2891740991282"/>
  <flow id="JF11214" begin="780" fromJunction="J2" toJunction="J0" end="840" vehsPerHour="37.795322394358024"/>
  <flow id="JF11215" begin="780" fromJunction="J2" toJunction="J4" end="840" vehsPerHour="6.185603312173815"/>
  <flow id="JF11216" begin="780" fromJunction="J3" toJunction="J2" end="840" vehsPerHour="41.21406792184001"/>
  <flow id="JF11217" begin="780" fromJunction="J4" toJunction="J0" end="840" vehsPerHour="84.73521965409326"/>
  <flow id="JF11218" begin="780" fromJunction="J4" toJunction="J2" end="840" vehsPerHour="61.820076901733636"/>
  <flow id="JF11219" begin="780" fromJunction="J4" toJunction="J3" end="840" vehsPerHour="134.68810458776414"/>
  <flow id="JF11220" begin="840" fromJunction="J0" toJunction="J3" end="900" vehsPerHour="28.03895272875941"/>
  <flow id="JF11221" begin="840" fromJunction="J0" toJunction="J4" end="900" vehsPerHour="73.16360740121902"/>
  <flow id="JF11222" begin="840" fromJunction="J2" toJunction="J0" end="900" vehsPerHour="109.28522484421414"/>
  <flow id="JF11223" begin="840" fromJunction="J2" toJunction="J3" end="900" vehsPerHour="32.057733727861425"/>
  <flow id="JF11224" begin="840" fromJunction="J2" toJunction="J4" end="900" vehsPerHour="43.368256005808014"/>
  <flow id="JF11225" begin="840" fromJunction="J3" toJunction="J0" end="900" vehsPerHour="45.65005406221062"/>
  <flow id="JF11226" begin="840" fromJunction="J3" toJunction="J2" end="900" vehsPerHour="44.29155426738297"/>
  <flow id="JF11227" begin="840" fromJunction="J3" toJunction="J4" end="900" vehsPerHour="99.06793877050372"/>
  <flow id="JF11228" begin="840" fromJunction="J4" toJunction="J0" end="900" vehsPerHour="72.71286123706511"/>
  <flow id="JF11229" begin="900" fromJunction="J0" toJunction="J2" end="960" vehsPerHour="80.50428875654154"/>
  <flow id="JF11230" begin="900" fromJunction="J0" toJunction="J3" end="960" vehsPerHour="134.61976281181217"/>
  <flow id="JF11231" begin="900" fromJunction="J2" toJunction="J3" end="960" vehsPerHour="89.5466403139392"/>
  <flow id="JF11232" begin="900" fromJunction="J3" toJunction="J2" end="960" vehsPerHour="29.472071552346538"/>
  <flow id="JF11233" begin="900" fromJunction="J4" toJunction="J0" end="960" vehsPerHour="103.84154850347996"/>
  <flow id="JF11234" begin="900" fromJunction="J4" toJunction="J2" end="960" vehsPerHour="106.48565231340379"/>
  <flow id="JF11235" begin="900" fromJunction="J4" toJunction="J3" end="960" vehsPerHour="65.82996537816055"/>
  <flow id="JF11236" begin="960" fromJunction="J0" toJunction="J4" end="1020" vehsPerHour="15.140755268524735"/>
  <flow id="JF11237" begin="960" fromJunction="J2" toJunction="J0" end="1020" vehsPerHour="89.72106640110263"/>
  <flow id="JF11238" begin="960" fromJunction="J2" toJunction="J3" end="1020" vehsPerHour="15.936047491360833"/>
  <flow id="JF11239" begin="960" fromJunction="J3" toJunction="J2" end="1020" vehsPerHour="105.67418214694297"/>
  <flow id="JF11240" begin="960" fromJunction="J4" toJunction="J0" end="1020" vehsPerHour="91.33495856841802"/>
  <flow id="JF11241" begin="960" fromJunction="J4" toJunction="J3" end="1020" vehsPerHour="86.12514326547307"/>
  <flow id="JF11242" begin="1020" fromJunction="J0" toJunction="J3" end="1080" vehsPerHour="107.38351762258294"/>
  <flow id="JF11243" begin="1020" fromJunction="J0" toJunction="J4" end="1080" vehsPerHour="99.06074504400716"/>
  <flow id="JF11244" begin="1020" fromJunction="J2" toJunction="J3" end="1080" vehsPerHour="133.08117351976114"/>
  <flow id="JF11245" begin="1020" fromJunction="J2" toJunction="J4" end="1080" vehsPerHour="5.241279024445938"/>
  <flow id="JF11246" begin="1020" fromJunction="J3" toJunction="J0" end="1080" vehsPerHour="98.78537107794985"/>
  <flow id="JF11247" begin="1020" fromJunction="J3" toJunction="J2" end="1080" vehsPerHour="92.03349260944603"/>
  <flow id="JF11248" begin="1020" fromJunction="J4" toJunction="J0" end="1080" vehsPerHour="100.42407828249102"/>
  <flow id="JF11249" begin="1020" fromJunction="J4" toJunction="J2" end="1080" vehsPerHour="61.98821481308357"/>
  <flow id="JF11250" begin="1020" fromJunction="J4" toJunction="J3" end="1080" vehsPerHour="82.27751129015464"/>
  <flow id="JF11251" begin="1080" fromJunction="J0" toJunction="J3" end="1140" vehsPerHour="44.71112910686519"/>
  <flow id="JF11252" begin="1080" fromJunction="J0" toJunction="J4" end="1140" vehsPerHour="42.79103331848534"/>
  <flow id="JF11253" begin="1080" fromJunction="J2" toJunction="J0" end="1140" vehsPerHour="8.99838676141885"/>
  <flow id="JF11254" begin="1080" fromJunction="J2" toJunction="J3" end="1140" vehsPerHour="21.678854883774935"/>
  <flow id="JF11255" begin="1080" fromJunction="J2" toJunction="J4" end="1140" vehsPerHour="119.98740623082124"/>
  <flow id="JF11256" begin="1080" fromJunction="J3" toJunction="J0" end="1140" vehsPerHour="71.06104228688724"/>
  <flow id="JF11257" begin="1080" fromJunction="J3" toJunction="J2" end="1140" vehsPerHour="61.27000101167231"/>
  <flow id="JF11258" begin="1080" fromJunction="J3" toJunction="J4" end="1140" vehsPerHour="84.67228988370698"/>
  <flow id="JF11259" begin="1080" fromJunction="J4" toJunction="J0" end="1140" vehsPerHour="120.23274572617649"/>
  <flow id="JF11260" begin="1080" fromJunction="J4" toJunction="J3" end="1140" vehsPerHour="113.17841719430076"/>
  <flow id="JF11261" begin="1140" fromJunction="J0" toJunction="J2" end="1200" vehsPerHour="76.00224868613856"/>
  <flow id="JF11262" begin="1140" fromJunction="J0" toJunction="J4" end="1200" vehsPerHour="122.23783151055972"/>
  <flow id="JF11263" begin="1140" fromJunction="J2" toJunction="J3" end="1200" vehsPerHour="119.64708408633116"/>
  <flow id="JF11264" begin="1140" fromJunction="J3" toJunction="J0" end="1200" vehsPerHour="22.939505015897858"/>
  <flow id="JF11265" begin="1140" fromJunction="J3" toJunction="J2" end="1200" vehsPerHour="59.29802279848622"/>
  <flow id="JF11266" begin="1140" fromJunction="J3" toJunction="J4" end="1200" vehsPerHour="108.71678147070729"/>
  <flow id="JF11267" begin="1140" fromJunction="J4" toJunction="J0" end="1200" vehsPerHour="62.82029064983946"/>
  <flow id="JF11268" begin="1140" fromJunction="J4" toJunction="J3" end="1200" vehsPerHour="118.81512272885956"/>
  <flow id="JF11269" begin="1200" fromJunction="J0" toJunction="J2" end="1260" vehsPerHour="60.00008010321291"/>
  <flow id="JF11270" begin="1200" fromJunction="J0" toJunction="J3" end="1260" vehsPerHour="105.56678380419503"/>
  <flow id="JF11271" begin="1200" fromJunction="J0" toJunction="J4" end="1260" vehsPerHour="0.1384094686131884"/>
  <flow id="JF11272" begin="1200" fromJunction="J2" toJunction="J0" end="1260" vehsPerHour="69.79312679957368"/>
  <flow id="JF11273" begin="1200" fromJunction="J2" toJunction="J3" end="1260" vehsPerHour="123.97973581696372"/>
  <flow id="JF11274" begin="1200" fromJunction="J2" toJunction="J4" end="1260" vehsPerHour="72.62257307335433"/>
  <flow id="JF11275" begin="1200" fromJunction="J3" toJunction="J0" end="1260" vehsPerHour="97.46867379616702"/>
  <flow id="JF11276" begin="1200" fromJunction="J3" toJunction="J2" end="1260" vehsPerHour="135.40390530234535"/>
  <flow id="JF11277" begin="1200" fromJunction="J4" toJunction="J0" end="1260" vehsPerHour="65.81516713666619"/>
  <flow id="JF11278" begin="1200" fromJunction="J4" toJunction="J3" end="1260" vehsPerHour="122.39026707929557"/>
  <flow id="JF11279" begin="1260" fromJunction="J0" toJunction="J3" end="1320" vehsPerHour="73.76788785110074"/>
  <flow id="JF11280" begin="1260" fromJunction="J0" toJunction="J4" end="1320" vehsPerHour="117.19516384688363"/>
  <flow id="JF11281" begin="1260" fromJunction="J2" toJunction="J0" end="1320" vehsPerHour="13.416142896260718"/>
  <flow id="JF11282" begin="1260" fromJunction="J2" toJunction="J3" end="1320" vehsPerHour="48.84028207525076"/>
  <flow id="JF11283" begin="1260" fromJunction="J2" toJunction="J4" end="1320" vehsPerHour="128.64490432165988"/>
  <flow id="JF11284" begin="1260" fromJunction="J3" toJunction="J0" end="1320" vehsPerHour="132.55906556632348"/>
  <flow id="JF11285" begin="1260" fromJunction="J3" toJunction="J4" end="1320" vehsPerHour="25.070576890077078"/>
  <flow id="JF11286" begin="1260" fromJunction="J4" toJunction="J0" end="1320" vehsPerHour="124.44237322725824"/>
  <flow id="JF11287" begin="1260" fromJunction="J4" toJunction="J2" end="1320" vehsPerHour="22.871303995419087"/>
  <flow id="JF11288" begin="1260" fromJunction="J4" toJunction="J3" end="1320" vehsPerHour="18.798686302517215"/>
  <flow id="JF11289" begin="1320" fromJunction="J0" toJunction="J4" end="1380" vehsPerHour="92.67676117905755"/>
  <flow id="JF11290" begin="1320" fromJunction="J2" toJunction="J3" end="1380" vehsPerHour="97.789400754921"/>
  <flow id="JF11291" begin="1320" fromJunction="J2" toJunction="J4" end="1380" vehsPerHour="109.56430066236103"/>
  <flow id="JF11292" begin="1320" fromJunction="J3" toJunction="J0" end="1380" vehsPerHour="121.64153312052143"/>
  <flow id="JF11293" begin="1320" fromJunction="J3" toJunction="J2" end="1380" vehsPerHour="89.39807897405217"/>
  <flow id="JF11294" begin="1320" fromJunction="J4" toJunction="J2" end="1380" vehsPerHour="59.60764435307982"/>
  <flow id="JF11295" begin="1380" fromJunction="J0" toJunction="J3" end="1440" vehsPerHour="80.97486784966361"/>
  <flow id="JF11296" begin="1380" fromJunction="J0" toJunction="J4" end="1440" vehsPerHour="97.93432180555138"/>
  <flow id="JF11297" begin="1380" fromJunction="J3" toJunction="J0" end="1440" vehsPerHour="41.64232861337559"/>
  <flow id="JF11298" begin="1380" fromJunction="J3" toJunction="J2" end="1440" vehsPerHour="115.8068459110656"/>
  <flow id="JF11299" begin="1380" fromJunction="J3" toJunction="J4" end="1440" vehsPerHour="133.85751603928708"/>
  <flow id="JF11300" begin="1380" fromJunction="J4" toJunction="J3" end="1440" vehsPerHour="120.47576193108183"/>
  <flow id="JF11301" begin="1440" fromJunction="J0" toJunction="J2" end="1500" vehsPerHour="59.299792669755014"/>
  <flow id="JF11302" begin="1440" fromJunction="J0" toJunction="J3" end="1500" vehsPerHour="71.05828878430444"/>
  <flow id="JF11303" begin="1440" fromJunction="J0" toJunction="J4" end="1500" vehsPerHour="109.68836215776989"/>
  <flow id="JF11304" begin="1440" fromJunction="J2" toJunction="J0" end="1500" vehsPerHour="45.63714034511236"/>
  <flow id="JF11305" begin="1440" fromJunction="J3" toJunction="J0" end="1500" vehsPerHour="32.20604202323868"/>
  <flow id="JF11306" begin="1440" fromJunction="J3" toJunction="J2" end="1500" vehsPerHour="125.45165536909185"/>
  <flow id="JF11307" begin="1440" fromJunction="J3" toJunction="J4" end="1500" vehsPerHour="74.24673733995942"/>
  <flow id="JF11308" begin="1440" fromJunction="J4" toJunction="J3" end="1500" vehsPerHour="24.80205707623765"/>
  <flow id="JF11309" begin="1500" fromJunction="J0" toJunction="J3" end="1560" vehsPerHour="121.66998750721105"/>
  <flow id="JF11310" begin="1500" fromJunction="J0" toJunction="J4" end="1560" vehsPerHour="44.732694693296416"/>
  <flow id="JF11311" begin="1500" fromJunction="J2" toJunction="J0" end="1560" vehsPerHour="51.47657692002466"/>
  <flow id="JF11312" begin="1500" fromJunction="J2" toJunction="J4" end="1560" vehsPerHour="73.00910596619663"/>
  <flow id="JF11313" begin="1500" fromJunction="J3" toJunction="J2" end="1560" vehsPerHour="94.41791180199999"/>
  <flow id="JF11314" begin="1500" fromJunction="J3" toJunction="J4" end="1560" vehsPerHour="52.776195489391924"/>
  <flow id="JF11315" begin="1500" fromJunction="J4" toJunction="J0" end="1560" vehsPerHour="122.8438707585479"/>
  <flow id="JF11316" begin="1500" fromJunction="J4" toJunction="J2" end="1560" vehsPerHour="99.88055635305486"/>
  <flow id="JF11317" begin="1500" fromJunction="J4" toJunction="J3" end="1560" vehsPerHour="70.65431874367934"/>
  <flow id="JF11318" begin="1560" fromJunction="J0" toJunction="J2" end="1620" vehsPerHour="125.45894726557857"/>
  <flow id="JF11319" begin="1560" fromJunction="J0" toJunction="J3" end="1620" vehsPerHour="71.71566990321237"/>
  <flow id="JF11320" begin="1560" fromJunction="J0" toJunction="J4" end="1620" vehsPerHour="128.753419504045"/>
  <flow id="JF11321" begin="1560" fromJunction="J2" toJunction="J3" end="1620" vehsPerHour="120.1465225912928"/>
  <flow id="JF11322" begin="1560" fromJunction="J2" toJunction="J4" end="1620" vehsPerHour="66.16942072707707"/>
  <flow id="JF11323" begin="1560" fromJunction="J4" toJunction="J0" end="1620" vehsPerHour="117.59198730969794"/>
  <flow id="JF11324" begin="1560" fromJunction="J4" toJunction="J2" end="1620" vehsPerHour="65.03513547115332"/>
  <flow id="JF11325" begin="1560" fromJunction="J4" toJunction="J3" end="1620" vehsPerHour="115.93021630776222"/>
  <flow id="JF11326" begin="1620" fromJunction="J0" toJunction="J3" end="1680" vehsPerHour="0.7194726005789633"/>
  <flow id="JF11327" begin="1620" fromJunction="J0" toJunction="J4" end="1680" vehsPerHour="42.08059984397122"/>
  <flow id="JF11328" begin="1620" fromJunction="J2" toJunction="J0" end="1680" vehsPerHour="70.97979108591163"/>
  <flow id="JF11329" begin="1620" fromJunction="J2" toJunction="J3" end="1680" vehsPerHour="81.9968027647722"/>
  <flow id="JF11330" begin="1620" fromJunction="J2" toJunction="J4" end="1680" vehsPerHour="122.01430649243333"/>
  <flow id="JF11331" begin="1620" fromJunction="J3" toJunction="J0" end="1680" vehsPerHour="131.83092570873302"/>
  <flow id="JF11332" begin="1620" fromJunction="J3" toJunction="J2" end="1680" vehsPerHour="4.48245241065582"/>
  <flow id="JF11333" begin="1620" fromJunction="J4" toJunction="J0" end="1680" vehsPerHour="123.79362603091377"/>
  <flow id="JF11334" begin="1620" fromJunction="J4" toJunction="J2" end="1680" vehsPerHour="124.39421599465948"/>
  <flow id="JF11335" begin="1620" fromJunction="J4" toJunction="J3" end="1680" vehsPerHour="106.37949123579301"/>
  <flow id="JF11336" begin="1680" fromJunction="J0" toJunction="J4" end="1740" vehsPerHour="73.65711606277651"/>
  <flow id="JF11337" begin="1680" fromJunction="J2" toJunction="J3" end="1740" vehsPerHour="134.14359700255662"/>
  <flow id="JF11338" begin="1680" fromJunction="J2" toJunction="J4" end="1740" vehsPerHour="33.64894273705427"/>
  <flow id="JF11339" begin="1680" fromJunction="J3" toJunction="J0" end="1740" vehsPerHour="100.58216848094872"/>
  <flow id="JF11340" begin="1680" fromJunction="J3" toJunction="J2" end="1740" vehsPerHour="101.0360562676306"/>
  <flow id="JF11341" begin="1680" fromJunction="J3" toJunction="J4" end="1740" vehsPerHour="66.94824664396"/>
  <flow id="JF11342" begin="1680" fromJunction="J4" toJunction="J0" end="1740" vehsPerHour="120.30100602884787"/>
  <flow id="JF11343" begin="1680" fromJunction="J4" toJunction="J2" end="1740" vehsPerHour="72.11517834296576"/>
  <flow id="JF11344" begin="1680" fromJunction="J4" toJunction="J3" end="1740" vehsPerHour="91.21154204528733"/>
  <flow id="JF11345" begin="1740" fromJunction="J0" toJunction="J2" end="1800" vehsPerHour="4.543126047139434"/>
  <flow id="JF11346" begin="1740" fromJunction="J0" toJunction="J3" end="1800" vehsPerHour="136.46162333390637"/>
  <flow id="JF11347" begin="1740" fromJunction="J2" toJunction="J3" end="1800" vehsPerHour="25.059738295580033"/>
  <flow id="JF11348" begin="1740" fromJunction="J2" toJunction="J4" end="1800" vehsPerHour="88.52163922066856"/>
  <flow id="JF11349" begin="1740" fromJunction="J3" toJunction="J0" end="1800" vehsPerHour="33.721934072100964"/>
  <flow id="JF11350" begin="1740" fromJunction="J3" toJunction="J2" end="1800" vehsPerHour="120.1126425431012"/>
  <flow id="JF11351" begin="1740" fromJunction="J3" toJunction="J4" end="1800" vehsPerHour="137.33147945529495"/>
  <flow id="JF11352" begin="1740" fromJunction="J4" toJunction="J0" end="1800" vehsPerHour="10.149391493166899"/>
  <flow id="JF11353" begin="1740" fromJunction="J4" toJunction="J2" end="1800" vehsPerHour="137.28763924941703"/>
  <flow id="JF11354" begin="1740" fromJunction="J4" toJunction="J3" end="1800" vehsPerHour="48.1938063850159"/>
  <flow id="JF11355" begin="1800" fromJunction="J0" toJunction="J3" end="1860" vehsPerHour="103.0489771443453"/>
  <flow id="JF11356" begin="1800" fromJunction="J0" toJunction="J4" end="1860" vehsPerHour="84.93345741896539"/>
  <flow id="JF11357" begin="1800" fromJunction="J2" toJunction="J3" end="1860" vehsPerHour="25.78275453725397"/>
  <flow id="JF11358" begin="1800" fromJunction="J2" toJunction="J4" end="1860" vehsPerHour="37.25904129356216"/>
  <flow id="JF11359" begin="1800" fromJunction="J3" toJunction="J0" end="1860" vehsPerHour="12.268277476493468"/>
  <flow id="JF11360" begin="1800" fromJunction="J3" toJunction="J2" end="1860" vehsPerHour="13.638771997495288"/>
  <flow id="JF11361" begin="1800" fromJunction="J3" toJunction="J4" end="1860" vehsPerHour="38.758717763841524"/>
  <flow id="JF11362" begin="1800" fromJunction="J4" toJunction="J0" end="1860" vehsPerHour="107.339434618871"/>
  <flow id="JF11363" begin="1800" fromJunction="J4" toJunction="J2" end="1860" vehsPerHour="15.011953337112278"/>
  <flow id="JF11364" begin="1800" fromJunction="J4" toJunction="J3" end="1860" vehsPerHour="125.61417176830625"/>
  <flow id="JF11365" begin="1860" fromJunction="J0" toJunction="J3" end="1920" vehsPerHour="16.011223981850236"/>
  <flow id="JF11366" begin="1860" fromJunction="J0" toJunction="J4" end="1920" vehsPerHour="44.64856408801335"/>
  <flow id="JF11367" begin="1860" fromJunction="J2" toJunction="J0" end="1920" vehsPerHour="27.47090947088154"/>