<?xml version="1.0" encoding="UTF-8"?>
<routes xmlns:xsi="http://www.w3.org/2001/XMLSchema-instance" xsi:noNamespaceSchemaLocation="http://sumo.dlr.de/xsd/routes_file.xsd">
  <flow id="JF12501" begin="0" fromJunction="J0" toJunction="J3" end="60" vehsPerHour="113.62737606016843"/>
  <flow id="JF12502" begin="0" fromJunction="J2" toJunction="J0" end="60" vehsPerHour="113.8046953820657"/>
  <flow id="JF12503" begin="0" fromJunction="J2" toJunction="J3" end="60" vehsPerHour="83.84903970872224"/>
  <flow id="JF12504" begin="0" fromJunction="J3" toJunction="J0" end="60" vehsPerHour="35.43265164847336"/>
  <flow id="JF12505" begin="0" fromJunction="J3" toJunction="J2" end="60" vehsPerHour="19.698535293280145"/>
  <flow id="JF12506" begin="0" fromJunction="J4" toJunction="J0" end="60" vehsPerHour="62.754171458699105"/>
  <flow id="JF12507" begin="0" fromJunction="J4" toJunction="J2" end="60" vehsPerHour="51.83282767112091"/>
  <flow id="JF12508" begin="0" fromJunction="J4" toJunction="J3" end="60" vehsPerHour="92.57731385680489"/>
  <flow id="JF12509" begin="60" fromJunction="J0" toJunction="J2" end="120" vehsPerHour="19.68528570919368"/>
  <flow id="JF12510" begin="60" fromJunction="J0" toJunction="J3" end="120" vehsPerHour="114.86104182901403"/>
  <flow id="JF12511" begin="60" fromJunction="J2" toJunction="J0" end="120" vehsPerHour="27.572928315626342"/>
  <flow id="JF12512" begin="60" fromJunction="J3" toJunction="J2" end="120" vehsPerHour="54.764742503883255"/>
  <flow id="JF12513" begin="60" fromJunction="J3" toJunction="J4" end="120" vehsPerHour="98.72563355530652"/>
  <flow id="JF12514" begin="60" fromJunction="J4" toJunction="J0" end="120" vehsPerHour="108.55225292218971"/>
  <flow id="JF12515" begin="60" fromJunction="J4" toJunction="J2" end="120" vehsPerHour="131.1413463889171"/>
  <flow id="JF12516" begin="60" fromJunction="J4" toJunction="J3" end="120" vehsPerHour="121.4810751737899"/>
  <flow id="JF12517" begin="120" fromJunction="J0" toJunction="J2" end="180" vehsPerHour="94.88655622756555"/>
  <flow id="JF12518" begin="120" fromJunction="J0" toJunction="J3" end="180" vehsPerHour="97.41258448771697"/>
  <flow id="JF12519" begin="120" fromJunction="J0" toJunction="J4" end="180" vehsPerHour="25.18576928353369"/>
  <flow id="JF12520" begin="120" fromJunction="J2" toJunction="J0" end="180" vehsPerHour="49.02796956294472"/>
  <flow id="JF12521" begin="120" fromJunction="J2" toJunction="J4" end="180" vehsPerHour="27.18896408925988"/>
  <flow id="JF12522" begin="120" fromJunction="J3" toJunction="J0" end="180" vehsPerHour="56.41529276539985"/>
  <flow id="JF12523" begin="120" fromJunction="J4" toJunction="J3" end="180" vehsPerHour="94.62041328422706"/>
  <flow id="JF12524" begin="180" fromJunction="J0" toJunction="J2" end="240" vehsPerHour="57.17613391171478"/>
  <flow id="JF12525" begin="180" fromJunction="J0" toJunction="J3" end="240" vehsPerHour="1.6852893350186209"/>
  <flow id="JF12526" begin="180" fromJunction="J0" toJunction="J4" end="240" vehsPerHour="111.09876243216252"/>
  <flow id="JF12527" begin="180" fromJunction="J2" toJunction="J0" end="240" vehsPerHour="41.86719651333382"/>
  <flow id="JF12528" begin="180" fromJunction="J2" toJunction="J3" end="240" vehsPerHour="63.50091669013615"/>
  <flow id="JF12529" begin="180" fromJunction="J2" toJunction="J4" end="240" vehsPerHour="37.58537467637588"/>
  <flow id="JF12530" begin="180" fromJunction="J3" toJunction="J2" end="240" vehsPerHour="11.293052045547443"/>
  <flow id="JF12531" begin="180" fromJunction="J3" toJunction="J4" end="240" vehsPerHour="27.453914221319607"/>
  <flow id="JF12532" begin="180" fromJunction="J4" toJunction="J0" end="240" vehsPerHour="53.94284840029326"/>
  <flow id="JF12533" begin="180" fromJunction="J4" toJunction="J2" end="240" vehsPerHour="32.30541942064314"/>
  <flow id="JF12534" begin="180" fromJunction="J4" toJunction="J3" end="240" vehsPerHour="65.95444638364562"/>
  <flow id="JF12535" begin="240" fromJunction="J0" toJunction="J2" end="300" vehsPerHour="50.235591113352775"/>
  <flow id="JF12536" begin="240" fromJunction="J0" toJunction="J3" end="300" vehsPerHour="131.1126157328882"/>
  <flow id="JF12537" begin="240" fromJunction="J0" toJunction="J4" end="300" vehsPerHour="84.5786952139692"/>
  <flow id="JF12538" begin="240" fromJunction="J2" toJunction="J0" end="300" vehsPerHour="31.49842432198829"/>
  <flow id="JF12539" begin="240" fromJunction="J2" toJunction="J3" end="300" vehsPerHour="62.991696634458144"/>
  <flow id="JF12540" begin="240" fromJunction="J2" toJunction="J4" end="300" vehsPerHour="91.8988628741719"/>
  <flow id="JF12541" begin="240" fromJunction="J3" toJunction="J0" end="300" vehsPerHour="100.70136986464541"/>
  <flow id="JF12542" begin="240" fromJunction="J4" toJunction="J0" end="300" vehsPerHour="20.543981925264976"/>
  <flow id="JF12543" begin="240" fromJunction="J4" toJunction="J2" end="300" vehsPerHour="14.838693576320733"/>
  <flow id="JF12544" begin="240" fromJunction="J4" toJunction="J3" end="300" vehsPerHour="107.1720389099663"/>
  <flow id="JF12545" begin="300" fromJunction="J0" toJunction="J3" end="360" vehsPerHour="21.722003477606755"/>
  <flow id="JF12546" begin="300" fromJunction="J2" toJunction="J0" end="360" vehsPerHour="81.94478814095824"/>
  <flow id="JF12547" begin="300" fromJunction="J2" toJunction="J3" end="360" vehsPerHour="42.63038329108167"/>
  <flow id="JF12548" begin="300" fromJunction="J2" toJunction="J4" end="360" vehsPerHour="9.428006828836654"/>
  <flow id="JF12549" begin="300" fromJunction="J3" toJunction="J0" end="360" vehsPerHour="55.68459130980487"/>
  <flow id="JF12550" begin="300" fromJunction="J3" toJunction="J2" end="360" vehsPerHour="107.86734908421265"/>
  <flow id="JF12551" begin="300" fromJunction="J3" toJunction="J4" end="360" vehsPerHour="36.083717824529295"/>
  <flow id="JF12552" begin="300" fromJunction="J4" toJunction="J2" end="360" vehsPerHour="44.38762029578648"/>
  <flow id="JF12553" begin="300" fromJunction="J4" toJunction="J3" end="360" vehsPerHour="136.71418652929353"/>
  <flow id="JF12554" begin="360" fromJunction="J0" toJunction="J3" end="420" vehsPerHour="74.77418227442182"/>
  <flow id="JF12555" begin="360" fromJunction="J0" toJunction="J4" end="420" vehsPerHour="44.774555461426296"/>
  <flow id="JF12556" begin="360" fromJunction="J2" toJunction="J0" end="420" vehsPerHour="74.63688016635936"/>
  <flow id="JF12557" begin="360" fromJunction="J2" toJunction="J4" end="420" vehsPerHour="35.852057122682346"/>
  <flow id="JF12558" begin="360" fromJunction="J3" toJunction="J0" end="420" vehsPerHour="59.49691371192197"/>
  <flow id="JF12559" begin="360" fromJunction="J3" toJunction="J2" end="420" vehsPerHour="103.09145438542859"/>
  <flow id="JF12560" begin="360" fromJunction="J4" toJunction="J0" end="420" vehsPerHour="30.41059389362594"/>
  <flow id="JF12561" begin="360" fromJunction="J4" toJunction="J2" end="420" vehsPerHour="74.97308710738356"/>
  <flow id="JF12562" begin="420" fromJunction="J0" toJunction="J3" end="480" vehsPerHour="54.45109529198818"/>
  <flow id="JF12563" begin="420" fromJunction="J0" toJunction="J4" end="480" vehsPerHour="110.97363356915774"/>
  <flow id="JF12564" begin="420" fromJunction="J2" toJunction="J0" end="480" vehsPerHour="84.35671755558954"/>
  <flow id="JF12565" begin="420" fromJunction="J2" toJunction="J4" end="480" vehsPerHour="37.67099867751009"/>
  <flow id="JF12566" begin="420" fromJunction="J3" toJunction="J0" end="480" vehsPerHour="51.619453442452645"/>
  <flow id="JF12567" begin="420" fromJunction="J3" toJunction="J2" end="480" vehsPerHour="88.76892386148246"/>
  <flow id="JF12568" begin="420" fromJunction="J3" toJunction="J4" end="480" vehsPerHour="55.78081760248237"/>
  <flow id="JF12569" begin="420" fromJunction="J4" toJunction="J0" end="480" vehsPerHour="75.0194025799662"/>
  <flow id="JF12570" begin="420" fromJunction="J4" toJunction="J3" end="480" vehsPerHour="14.480193990244139"/>
  <flow id="JF12571" begin="480" fromJunction="J0" toJunction="J2" end="540" vehsPerHour="93.11536968850547"/>
  <flow id="JF12572" begin="480" fromJunction="J0" toJunction="J3" end="540" vehsPerHour="0.5669275860005935"/>
  <flow id="JF12573" begin="480" fromJunction="J0" toJunction="J4" end="540" vehsPerHour="15.85615297107935"/>
  <flow id="JF12574" begin="480" fromJunction="J2" toJunction="J0" end="540" vehsPerHour="105.4851085604579"/>
  <flow id="JF12575" begin="480" fromJunction="J2" toJunction="J3" end="540" vehsPerHour="118.49982417039594"/>
  <flow id="JF12576" begin="480" fromJunction="J3" toJunction="J0" end="540" vehsPerHour="5.332300563045887"/>
  <flow id="JF12577" begin="480" fromJunction="J3" toJunction="J4" end="540" vehsPerHour="14.936104534810285"/>
  <flow id="JF12578" begin="480" fromJunction="J4" toJunction="J0" end="540" vehsPerHour="78.21193278734981"/>
  <flow id="JF12579" begin="480" fromJunction="J4" toJunction="J3" end="540" vehsPerHour="27.04068156340669"/>
  <flow id="JF12580" begin="540" fromJunction="J0" toJunction="J2" end="600" vehsPerHour="133.91407397539558"/>
  <flow id="JF12581" begin="540" fromJunction="J0" toJunction="J3" end="600" vehsPerHour="1.901718369745904"/>
  <flow id="JF12582" begin="540" fromJunction="J3" toJunction="J0" end="600" vehsPerHour="37.67444555668728"/>
  <flow id="JF12583" begin="540" fromJunction="J3" toJunction="J2" end="600" vehsPerHour="103.73391107140411"/>
  <flow id="JF12584" begin="540" fromJunction="J3" toJunction="J4" end="600" vehsPerHour="105.36321615030465"/>
  <flow id="JF12585" begin="540" fromJunction="J4" toJunction="J2" end="600" vehsPerHour="1.41064471978823"/>
  <flow id="JF12586" begin="540" fromJunction="J4" toJunction="J3" end="600" vehsPerHour="10.272441314504306"/>
  <flow id="JF12587" begin="600" fromJunction="J0" toJunction="J2" end="660" vehsPerHour="62.32024996134332"/>
  <flow id="JF12588" begin="600" fromJunction="J0" toJunction="J3" end="660" vehsPerHour="84.71299740595566"/>
  <flow id="JF12589" begin="600" fromJunction="J2" toJunction="J0" end="660" vehsPerHour="27.212950688977283"/>
  <flow id="JF12590" begin="600" fromJunction="J2" toJunction="J3" end="660" vehsPerHour="116.8655053151063"/>
  <flow id="JF12591" begin="600" fromJunction="J3" toJunction="J0" end="660" vehsPerHour="106.69696756154941"/>
  <flow id="JF12592" begin="600" fromJunction="J3" toJunction="J2" end="660" vehsPerHour="135.57723068226247"/>
  <flow id="JF12593" begin="600" fromJunction="J4" toJunction="J0" end="660" vehsPerHour="99.64082031499821"/>
  <flow id="JF12594" begin="600" fromJunction="J4" toJunction="J3" end="660" vehsPerHour="122.42131685047906"/>
  <flow id="JF12595" begin="660" fromJunction="J0" toJunction="J2" end="720" vehsPerHour="18.6834802498049"/>
  <flow id="JF12596" begin="660" fromJunction="J2" toJunction="J0" end="720" vehsPerHour="80.90707451065956"/>
  <flow id="JF12597" begin="660" fromJunction="J3" toJunction="J0" end="720" vehsPerHour="93.29278260359371"/>
  <flow id="JF12598" begin="660" fromJunction="J3" toJunction="J2" end="720" vehsPerHour="110.55331175575584"/>
  <flow id="JF12599" begin="660" fromJunction="J3" toJunction="J4" end="720" vehsPerHour="60.08344523020729"/>
  <flow id="JF12600" begin="660" fromJunction="J4" toJunction="J0" end="720" vehsPerHour="119.76485730738769"/>
  <flow id="JF12601" begin="660" fromJunction="J4" toJunction="J2" end="720" vehsPerHour="20.907471971800923"/>
  <flow id="JF12602" begin="660" fromJunction="J4" toJunction="J3" end="720" vehsPerHour="2.9099567179317183"/>
  <flow id="JF12603" begin="720" fromJunction="J0" toJunction="J3" end="780" vehsPerHour="123.45493112798334"/>
  <flow id="JF12604" begin="720" fromJunction="J0" toJunction="J4" end="780" vehsPerHour="130.2767962337483"/>
  <flow id="JF12605" begin="720" fromJunction="J2" toJunction="J3" end="780" vehsPerHour="114.47245573391092"/>
  <flow id="JF12606" begin="720" fromJunction="J3" toJunction="J0" end="780" vehsPerHour="0.9140147628058337"/>
  <flow id="JF12607" begin="720" fromJunction="J3" toJunction="J2" end="780" vehsPerHour="136.16017080500808"/>
  <flow id="JF12608" begin="720" fromJunction="J3" toJunction="J4" end="780" vehsPerHour="80.11216764778182"/>
  <flow id="JF12609" begin="720" fromJunction="J4" toJunction="J2" end="780" vehsPerHour="42.38640310864343"/>
  <flow id="JF12610" begin="720" fromJunction="J4" toJunction="J3" end="780" vehsPerHour="38.63622867168211"/>
  <flow id="JF12611" begin="780" fromJunction="J0" toJunction="J2" end="840" vehsPerHour="47.26157457870599"/>
  <flow id="JF12612" begin="780" fromJunction="J0" toJunction="J3" end="840" vehsPerHour="46.038132844212555"/>
  <flow id="JF12613" begin="780" fromJunction="J0" toJunction="J4" end="840" vehsPerHour="21.55450175873078"/>
  <flow id="JF12614" begin="780" fromJunction="J2" toJunction="J0" end="840" vehsPerHour="122.42117365775121"/>
  <flow id="JF12615" begin="780" fromJunction="J2" toJunction="J3" end="840" vehsPerHour="134.95952545891296"/>
  <flow id="JF12616" begin="780" fromJunction="J2" toJunction="J4" end="840" vehsPerHour="84.10653254220006"/>
  <flow id="JF12617" begin="780" fromJunction="J3" toJunction="J0" end="840" vehsPerHour="16.734202620755884"/>
  <flow id="JF12618" begin="780" fromJunction="J3" toJunction="J2" end="840" vehsPerHour="124.8586549574254"/>
  <flow id="JF12619" begin="780" fromJunction="J3" toJunction="J4" end="840" vehsPerHour="86.52785792380412"/>
  <flow id="JF12620" begin="780" fromJunction="J4" toJunction="J2" end="840" vehsPerHour="93.01921031784414"/>
  <flow id="JF12621" begin="780" fromJunction="J4" toJunction="J3" end="840" vehsPerHour="128.10796088720474"/>
  <flow id="JF12622" begin="840" fromJunction="J2" toJunction="J3" end="900" vehsPerHour="79.19655605298277"/>
  <flow id="JF12623" begin="840" fromJunction="J2" toJunction="J4" end="900" vehsPerHour="37.17878541976821"/>
  <flow id="JF12624" begin="840" fromJunction="J3" toJunction="J0" end="900" vehsPerHour="129.59309423261706"/>
  <flow id="JF12625" begin="840" fromJunction="J4" toJunction="J0" end="900" vehsPerHour="14.74245765663455"/>
  <flow id="JF12626" begin="840" fromJunction="J4" toJunction="J3" end="900" vehsPerHour="135.2388997025503"/>
  <flow id="JF12627" begin="900" fromJunction="J0" toJunction="J3" end="960" vehsPerHour="14.341143683627216"/>
  <flow id="JF12628" begin="900" fromJunction="J2" toJunction="J3" end="960" vehsPerHour="24.66672588643105"/>
  <flow id="JF12629" begin="900" fromJunction="J2" toJunction="J4" end="960" vehsPerHour="102.69399077394928"/>
  <flow id="JF12630" begin="900" fromJunction="J3" toJunction="J0" end="960" vehsPerHour="13.362864431305887"/>
  <flow id="JF12631" begin="900" fromJunction="J3" toJunction="J2" end="960" vehsPerHour="108.58346232362733"/>
  <flow id="JF12632" begin="900" fromJunction="J3" toJunction="J4" end="960" vehsPerHour="137.15571960942262"/>
  <flow id="JF12633" begin="960" fromJunction="J0" toJunction="J2" end="1020" vehsPerHour="32.110536667988164"/>
  <flow id="JF12634" begin="960" fromJunction="J0" toJunction="J3" end="1020" vehsPerHour="35.26788324269168"/>
  <flow id="JF12635" begin="960" fromJunction="J0" toJunction="J4" end="1020" vehsPerHour="104.2472334387064"/>
  <flow id="JF12636" begin="960" fromJunction="J2" toJunction="J0" end="1020" vehsPerHour="132.8640099061753"/>
  <flow id="JF12637" begin="960" fromJunction="J2" toJunction="J4" end="1020" vehsPerHour="51.19884741679751"/>
  <flow id="JF12638" begin="960" fromJunction="J3" toJunction="J0" end="1020" vehsPerHour="21.71510833413776"/>
  <flow id="JF12639" begin="960" fromJunction="J3" toJunction="J4" end="1020" vehsPerHour="105.50236767536654"/>
  <flow id="JF12640" begin="960" fromJunction="J4" toJunction="J0" end="1020" vehsPerHour="131.22696397560665"/>
  <flow id="JF12641" begin="960" fromJunction="J4" toJunction="J2" end="1020" vehsPerHour="61.04153478616337"/>
  <flow id="JF12642" begin="1020" fromJunction="J0" toJunction="J3" end="1080" vehsPerHour="81.10788113724055"/>
  <flow id="JF12643" begin="1020" fromJunction="J0" toJunction="J4" end="1080" vehsPerHour="101.15114565807048"/>
  <flow id="JF12644" begin="1020" fromJunction="J2" toJunction="J0" end="1080" vehsPerHour="91.00747184494415"/>
  <flow id="JF12645" begin="1020" fromJunction="J2" toJunction="J3" end="1080" vehsPerHour="11.647967232268677"/>
  <flow id="JF12646" begin="1020" fromJunction="J2" toJunction="J4" end="1080" vehsPerHour="70.68855503391283"/>
  <flow id="JF12647" begin="1020" fromJunction="J3" toJunction="J0" end="1080" vehsPerHour="76.57183098983175"/>
  <flow id="JF12648" begin="1020" fromJunction="J3" toJunction="J2" end="1080" vehsPerHour="52.15894837165978"/>
  <flow id="JF12649" begin="1020" fromJunction="J3" toJunction="J4" end="1080" vehsPerHour="85.96669520096238"/>
  <flow id="JF12650" begin="1020" fromJunction="J4" toJunction="J0" end="1080" vehsPerHour="66.44618757909522"/>
  <flow id="JF12651" begin="1020" fromJunction="J4" toJunction="J2" end="1080" vehsPerHour="125.29702706566509"/>
  <flow id="JF12652" begin="1080" fromJunction="J0" toJunction="J2" end="1140" vehsPerHour="116.48784644222914"/>
  <flow id="JF12653" begin="1080" fromJunction="J0" toJunction="J3" end="1140" vehsPerHour="108.63107782440042"/>
  <flow id="JF12654" begin="1080" fromJunction="J0" toJunction="J4" end="1140" vehsPerHour="21.16908364684565"/>
  <flow id="JF12655" begin="1080" fromJunction="J2" toJunction="J3" end="1140" vehsPerHour="13.569724646523325"/>
  <flow id="JF12656" begin="1080" fromJunction="J2" toJunction="J4" end="1140" vehsPerHour="29.551536247037415"/>
  <flow id="JF12657" begin="1080" fromJunction="J4" toJunction="J0" end="1140" vehsPerHour="64.65262793947618"/>
  <flow id="JF12658" begin="1080" fromJunction="J4" toJunction="J3" end="1140" vehsPerHour="26.102635375669834"/>
  <flow id="JF12659" begin="1140" fromJunction="J0" toJunction="J2" end="1200" vehsPerHour="9.261002274369798"/>
  <flow id="JF12660" begin="1140" fromJunction="J0" toJunction="J3" end="1200" vehsPerHour="1.030639199916517"/>
  <flow id="JF12661" begin="1140" fromJunction="J0" toJunction="J4" end="1200" vehsPerHour="31.843575673687656"/>
  <flow id="JF12662" begin="1140" fromJunction="J2" toJunction="J3" end="1200" vehsPerHour="21.7682353662761"/>
  <flow id="JF12663" begin="1140" fromJunction="J3" toJunction="J2" end="1200" vehsPerHour="96.98478845763353"/>
  <flow id="JF12664" begin="1140" fromJunction="J3" toJunction="J4" end="1200" vehsPerHour="62.87894782231301"/>
  <flow id="JF12665" begin="1140" fromJunction="J4" toJunction="J0" end="1200" vehsPerHour="48.486181113768176"/>
  <flow id="JF12666" begin="1140" fromJunction="J4" toJunction="J2" end="1200" vehsPerHour="24.537663939583673"/>
  <flow id="JF12667" begin="1140" fromJunction="J4" toJunction="J3" end="1200" vehsPerHour="7.319081638200225"/>
  <flow id="JF12668" begin="1200" fromJunction="J0" toJunction="J2" end="1260" vehsPerHour="36.824421039019384"/>
  <flow id="JF12669" begin="1200" fromJunction="J0" toJunction="J4" end="1260" vehsPerHour="127.03706242863696"/>
  <flow id="JF12670" begin="1200" fromJunction="J2" toJunction="J0" end="1260" vehsPerHour="59.96307752920107"/>
  <flow id="JF12671" begin="1200" fromJunction="J2" toJunction="J4" end="1260" vehsPerHour="47.9068515922974"/>
  <flow id="JF12672" begin="1200" fromJunction="J3" toJunction="J0" end="1260" vehsPerHour="133.93416341144024"/>
  <flow id="JF12673" begin="1200" fromJunction="J3" toJunction="J2" end="1260" vehsPerHour="2.5924830030534913"/>
  <flow id="JF12674" begin="1200" fromJunction="J4" toJunction="J0" end="1260" vehsPerHour="100.78359631599662"/>
  <flow id="JF12675" begin="1200" fromJunction="J4" toJunction="J2" end="1260" vehsPerHour="44.54400288668756"/>
  <flow id="JF12676" begin="1260" fromJunction="J0" toJunction="J2" end="1320" vehsPerHour="50.46953840502953"/>
  <flow id="JF12677" begin="1260" fromJunction="J0" toJunction="J3" end="1320" vehsPerHour="35.48466678175322"/>
  <flow id="JF12678" begin="1260" fromJunction="J2" toJunction="J0" end="1320" vehsPerHour="132.7888332535562"/>
  <flow id="JF12679" begin="1260" fromJunction="J2" toJunction="J3" end="1320" vehsPerHour="27.27666220947002"/>
  <flow id="JF12680" begin="1260" fromJunction="J2" toJunction="J4" end="1320" vehsPerHour="97.66219848884269"/>
  <flow id="JF12681" begin="1260" fromJunction="J3" toJunction="J0" end="1320" vehsPerHour="28.123721198426313"/>
  <flow id="JF12682" begin="1260" fromJunction="J3" toJunction="J2" end="1320" vehsPerHour="71.17645118362238"/>
  <flow id="JF12683" begin="1260" fromJunction="J3" toJunction="J4" end="1320" vehsPerHour="122.81086560113386"/>
  <flow id="JF12684" begin="1260" fromJunction="J4" toJunction="J2" end="1320" vehsPerHour="46.655551946927474"/>
  <flow id="JF12685" begin="1260" fromJunction="J4" toJunction="J3" end="1320" vehsPerHour="78.43466670586865"/>
  <flow id="JF12686" begin="1320" fromJunction="J0" toJunction="J2" end="1380" vehsPerHour="22.72861603209044"/>
  <flow id="JF12687" begin="1320" fromJunction="J0" toJunction="J3" end="1380" vehsPerHour="48.47358833932076"/>
  <flow id="JF12688" begin="1320" fromJunction="J2" toJunction="J0" end="1380" vehsPerHour="27.99040395379854"/>
  <flow id="JF12689" begin="1320" fromJunction="J3" toJunction="J2" end="1380" vehsPerHour="2.0501176456403676"/>
  <flow id="JF12690" begin="1320" fromJunction="J4" toJunction="J2" end="1380" vehsPerHour="14.412458754562591"/>
  <flow id="JF12691" begin="1320" fromJunction="J4" toJunction="J3" end="1380" vehsPerHour="45.149323885362676"/>
  <flow id="JF12692" begin="1380" fromJunction="J0" toJunction="J2" end="1440" vehsPerHour="125.3627253968538"/>
  <flow id="JF12693" begin="1380" fromJunction="J0" toJunction="J4" end="1440" vehsPerHour="114.57368423154492"/>
  <flow id="JF12694" begin="1380" fromJunction="J3" toJunction="J0" end="1440" vehsPerHour="84.55304095100918"/>
  <flow id="JF12695" begin="1380" fromJunction="J4" toJunction="J0" end="1440" vehsPerHour="120.50228239106409"/>
  <flow id="JF12696" begin="1380" fromJunction="J4" toJunction="J2" end="1440" vehsPerHour="45.666817209662575"/>
  <flow id="JF12697" begin="1380" fromJunction="J4" toJunction="J3" end="1440" vehsPerHour="35.044107470682285"/>
  <flow id="JF12698" begin="1440" fromJunction="J2" toJunction="J3" end="1500" vehsPerHour="68.56379309729301"/>
  <flow id="JF12699" begin="1440" fromJunction="J3" toJunction="J0" end="1500" vehsPerHour="102.11187446857524"/>
  <flow id="JF12700" begin="1440" fromJunction="J3" toJunction="J2" end="1500" vehsPerHour="8.878545095703156"/>
  <flow id="JF12701" begin="1440" fromJunction="J3" toJunction="J4" end="1500" vehsPerHour="32.73643929457205"/>
  <flow id="JF12702" begin="1440" fromJunction="J4" toJunction="J2" end="1500" vehsPerHour="109.22865040010882"/>
  <flow id="JF12703" begin="1440" fromJunction="J4" toJunction="J3" end="1500" vehsPerHour="57.39252610368174"/>
  <flow id="JF12704" begin="1500" fromJunction="J0" toJunction="J2" end="1560" vehsPerHour="43.438096083720616"/>
  <flow id="JF12705" begin="1500" fromJunction="J0" toJunction="J3" end="1560" vehsPerHour="109.44073765058329"/>
  <flow id="JF12706" begin="1500" fromJunction="J0" toJunction="J4" end="1560" vehsPerHour="116.50355971895189"/>
  <flow id="JF12707" begin="1500" fromJunction="J2" toJunction="J0" end="1560" vehsPerHour="24.188289535395032"/>
  <flow id="JF12708" begin="1500" fromJunction="J2" toJunction="J3" end="1560" vehsPerHour="99.64639822713907"/>
  <flow id="JF12709" begin="1500" fromJunction="J2" toJunction="J4" end="1560" vehsPerHour="78.2944237064449"/>
  <flow id="JF12710" begin="1500" fromJunction="J3" toJunction="J0" end="1560" vehsPerHour="56.572263648341455"/>
  <flow id="JF12711" begin="1500" fromJunction="J3" toJunction="J4" end="1560" vehsPerHour="120.19178565750538"/>
  <flow id="JF12712" begin="1500" fromJunction="J4" toJunction="J0" end="1560" vehsPerHour="121.43065655036568"/>
  <flow id="JF12713" begin="1500" fromJunction="J4" toJunction="J2" end="1560" vehsPerHour="131.49696561297517"/>
  <flow id="JF12714" begin="1500" fromJunction="J4" toJunction="J3" end="1560" vehsPerHour="89.47279476124915"/>
  <flow id="JF12715" begin="1560" fromJunction="J0" toJunction="J2" end="1620" vehsPerHour="41.84425639420662"/>
  <flow id="JF12716" begin="1560" fromJunction="J0" toJunction="J3" end="1620" vehsPerHour="15.84370195522898"/>
  <flow id="JF12717" begin="1560" fromJunction="J0" toJunction="J4" end="1620" vehsPerHour="1.6864116770058222"/>
  <flow id="JF12718" begin="1560" fromJunction="J2" toJunction="J0" end="1620" vehsPerHour="18.018320034158965"/>
  <flow id="JF12719" begin="1560" fromJunction="J2" toJunction="J3" end="1620" vehsPerHour="35.795296151893915"/>
  <flow id="JF12720" begin="1560" fromJunction="J2" toJunction="J4" end="1620" vehsPerHour="52.517791457713116"/>
  <flow id="JF12721" begin="1560" fromJunction="J3" toJunction="J0" end="1620" vehsPerHour="136.73606518594835"/>
  <flow id="JF12722" begin="1560" fromJunction="J3" toJunction="J4" end="1620" vehsPerHour="71.87472087216948"/>
  <flow id="JF12723" begin="1560" fromJunction="J4" toJunction="J0" end="1620" vehsPerHour="66.4445322725071"/>
  <flow id="JF12724" begin="1560" fromJunction="J4" toJunction="J2" end="1620" vehsPerHour="59.707147960673964"/>
  <flow id="JF12725" begin="1560" fromJunction="J4" toJunction="J3" end="1620" vehsPerHour="30.901125209631722"/>
  <flow id="JF12726" begin="1620" fromJunction="J0" toJunction="J2" end="1680" vehsPerHour="76.16700596234469"/>
  <flow id="JF12727" begin="1620" fromJunction="J0" toJunction="J3" end="1680" vehsPerHour="95.77068653754354"/>
  <flow id="JF12728" begin="1620" fromJunction="J2" toJunction="J0" end="1680" vehsPerHour="115.64444722452069"/>
  <flow id="JF12729" begin="1620" fromJunction="J2" toJunction="J3" end="1680" vehsPerHour="51.60995947221913"/>
  <flow id="JF12730" begin="1620" fromJunction="J2" toJunction="J4" end="1680" vehsPerHour="80.62308972226003"/>
  <flow id="JF12731" begin="1620" fromJunction="J3" toJunction="J0" end="1680" vehsPerHour="95.6196036730039"/>
  <flow id="JF12732" begin="1620" fromJunction="J3" toJunction="J2" end="1680" vehsPerHour="0.7252551416794946"/>
  <flow id="JF12733" begin="1620" fromJunction="J3" toJunction="J4" end="1680" vehsPerHour="124.42665451482985"/>
  <flow id="JF12734" begin="1620" fromJunction="J4" toJunction="J0" end="1680" vehsPerHour="84.38271591749916"/>
  <flow id="JF12735" begin="1620" fromJunction="J4" toJunction="J2" end="1680" vehsPerHour="131.42219867580005"/>
  <flow id="JF12736" begin="1680" fromJunction="J0" toJunction="J2" end="1740" vehsPerHour="130.03204481047385"/>
  <flow id="JF12737" begin="1680" fromJunction="J0" toJunction="J3" end="1740" vehsPerHour="105.84670116286502"/>
  <flow id="JF12738" begin="1680" fromJunction="J0" toJunction="J4" end="1740" vehsPerHour="103.32485346270312"/>
  <flow id="JF12739" begin="1680" fromJunction="J2" toJunction="J3" end="1740" vehsPerHour="13.486907395696644"/>
  <flow id="JF12740" begin="1680" fromJunction="J2" toJunction="J4" end="1740" vehsPerHour="19.89942809461667"/>
  <flow id="JF12741" begin="1680" fromJunction="J3" toJunction="J4" end="1740" vehsPerHour="13.97573181219063"/>
  <flow id="JF12742" begin="1680" fromJunction="J4" toJunction="J0" end="1740" vehsPerHour="66.57356206773142"/>
  <flow id="JF12743" begin="1680" fromJunction="J4" toJunction="J3" end="1740" vehsPerHour="135.89033553991075"/>
  <flow id="JF12744" begin="1740" fromJunction="J0" toJunction="J2" end="1800" vehsPerHour="124.48082478089133"/>
  <flow id="JF12745" begin="1740" fromJunction="J0" toJunction="J3" end="1800" vehsPerHour="45.12201830552291"/>
  <flow id="JF12746" begin="1740" fromJunction="J0" toJunction="J4" end="1800" vehsPerHour="91.3392966966497"/>
  <flow id="JF12747" begin="1740" fromJunction="J2" toJunction="J0" end="1800" vehsPerHour="106.98949661900927"/>
  <flow id="JF12748" begin="1740" fromJunction="J2" toJunction="J4" end="1800" vehsPerHour="41.79772689747462"/>
  <flow id="JF12749" begin="1740" fromJunction="J3" toJunction="J0" end="1800" vehsPerHour="123.39529638243793"/>
  <flow id="JF12750" begin="1740" fromJunction="J3" toJunction="J4" end="1800" vehsPerHour="43.04419960615286"/>
  <flow id="JF12751" begin="1740" fromJunction="J4" toJunction="J0" end="1800" vehsPerHour="68.87300862406047"/>
  <flow id="JF12752" begin="1800" fromJunction="J0" toJunction="J2" end="1860" vehsPerHour="134.10725374381133"/>
  <flow id="JF12753" begin="1800" fromJunction="J0" toJunction="J3" end="1860" vehsPerHour="87.33908092835459"/>
  <flow id="JF12754" begin="1800" fromJunction="J0" toJunction="J4" end="1860" vehsPerHour="84.53068432430094"/>
  <flow id="JF12755" begin="1800" fromJunction="J2" toJunction="J0" end="1860" vehsPerHour="99.59682079767975"/>
  <flow id="JF12756" begin="1800" fromJunction="J2" toJunction="J4" end="1860" vehsPerHour="134.4023874584392"/>
  <flow id="JF12757" begin="1800" fromJunction="J3" toJunction="J0" end="1860" vehsPerHour="53.05686699052169"/>
  <flow id="JF12758" begin="1800" fromJunction="J3" toJunction="J2" end="1860" vehsPerHour="54.870915797030875"/>
  <flow id="JF12759" begin="1800" fromJunction="J3" toJunction="J4" end="1860" vehsPerHour="126.99044819979004"/>
  <flow id="JF12760" begin="1800" fromJunction="J4" toJunction="J2" end="1860" vehsPerHour="67.87947280244356"/>
  <flow id="JF12761" begin="1800" fromJunction="J4" toJunction="J3" end="1860" vehsPerHour="35.62918851324818"/>
  <flow id="JF12762" begin="1860" fromJunction="J0" toJunction="J3" end="1920" vehsPerHour="34.648990759690065"/>
  <flow id="JF12763" begin="1860" fromJunction="J0" toJunction="J4" end="1920" vehsPerHour="128.88225136000958"/>
  <flow id="JF12764" begin="1860" fromJunction="J2" toJunction="J3" end="1920" vehsPerHour="83.47909860433487"/>
  <flow id="JF12765" begin="1860" fromJunction="J2" toJunction="J4" end="1920" vehsPerHour="9.740875813861733"/>