<?xml version="1.0" encoding="UTF-8"?>
<routes xmlns:xsi="http://www.w3.org/2001/XMLSchema-instance" xsi:noNamespaceSchemaLocation="http://sumo.dlr.de/xsd/routes_file.xsd">
  <flow id="JF8368" begin="0" fromJunction="J0" toJunction="J2" end="60" vehsPerHour="59.864429459487994"/>
  <flow id="JF8369" begin="0" fromJunction="J2" toJunction="J0" end="60" vehsPerHour="109.73305622520208"/>
  <flow id="JF8370" begin="0" fromJunction="J2" toJunction="J4" end="60" vehsPerHour="112.41148187936345"/>
  <flow id="JF8371" begin="0" fromJunction="J3" toJunction="J0" end="60" vehsPerHour="25.885147721277242"/>
  <flow id="JF8372" begin="0" fromJunction="J3" toJunction="J2" end="60" vehsPerHour="23.451037642118838"/>
  <flow id="JF8373" begin="0" fromJunction="J3" toJunction="J4" end="60" vehsPerHour="28.866971295934537"/>
  <flow id="JF8374" begin="0" fromJunction="J4" toJunction="J0" end="60" vehsPerHour="30.061921276948887"/>
  <flow id="JF8375" begin="0" fromJunction="J4" toJunction="J2" end="60" vehsPerHour="111.60104877418259"/>
  <flow id="JF8376" begin="0" fromJunction="J4" toJunction="J3" end="60" vehsPerHour="59.21865730951792"/>
  <flow id="JF8377" begin="60" fromJunction="J0" toJunction="J2" end="120" vehsPerHour="102.68788522032659"/>
  <flow id="JF8378" begin="60" fromJunction="J0" toJunction="J3" end="120" vehsPerHour="108.62955521681702"/>
  <flow id="JF8379" begin="60" fromJunction="J2" toJunction="J3" end="120" vehsPerHour="106.7059613190295"/>
  <flow id="JF8380" begin="60" fromJunction="J3" toJunction="J0" end="120" vehsPerHour="122.17860971172914"/>
  <flow id="JF8381" begin="60" fromJunction="J3" toJunction="J4" end="120" vehsPerHour="52.84442087129387"/>
  <flow id="JF8382" begin="60" fromJunction="J4" toJunction="J0" end="120" vehsPerHour="109.49093297960212"/>
  <flow id="JF8383" begin="60" fromJunction="J4" toJunction="J3" end="120" vehsPerHour="82.97695690312543"/>
  <flow id="JF8384" begin="120" fromJunction="J0" toJunction="J2" end="180" vehsPerHour="5.455869847777656"/>
  <flow id="JF8385" begin="120" fromJunction="J0" toJunction="J3" end="180" vehsPerHour="77.2006946196644"/>
  <flow id="JF8386" begin="120" fromJunction="J2" toJunction="J3" end="180" vehsPerHour="135.3598195235906"/>
  <flow id="JF8387" begin="120" fromJunction="J2" toJunction="J4" end="180" vehsPerHour="110.19846786568917"/>
  <flow id="JF8388" begin="120" fromJunction="J3" toJunction="J0" end="180" vehsPerHour="58.93910519423593"/>
  <flow id="JF8389" begin="120" fromJunction="J4" toJunction="J0" end="180" vehsPerHour="99.72471604421776"/>
  <flow id="JF8390" begin="120" fromJunction="J4" toJunction="J3" end="180" vehsPerHour="44.691113594866685"/>
  <flow id="JF8391" begin="180" fromJunction="J0" toJunction="J2" end="240" vehsPerHour="104.28800299468203"/>
  <flow id="JF8392" begin="180" fromJunction="J0" toJunction="J3" end="240" vehsPerHour="104.0194552824673"/>
  <flow id="JF8393" begin="180" fromJunction="J2" toJunction="J0" end="240" vehsPerHour="122.06074846630486"/>
  <flow id="JF8394" begin="180" fromJunction="J2" toJunction="J3" end="240" vehsPerHour="45.67524074597394"/>
  <flow id="JF8395" begin="180" fromJunction="J3" toJunction="J0" end="240" vehsPerHour="85.27197001088693"/>
  <flow id="JF8396" begin="180" fromJunction="J3" toJunction="J2" end="240" vehsPerHour="46.17800096443602"/>
  <flow id="JF8397" begin="180" fromJunction="J3" toJunction="J4" end="240" vehsPerHour="79.87858352495269"/>
  <flow id="JF8398" begin="180" fromJunction="J4" toJunction="J0" end="240" vehsPerHour="23.67083599365458"/>
  <flow id="JF8399" begin="180" fromJunction="J4" toJunction="J3" end="240" vehsPerHour="22.551535079510078"/>
  <flow id="JF8400" begin="240" fromJunction="J0" toJunction="J3" end="300" vehsPerHour="1.7822602234183142"/>
  <flow id="JF8401" begin="240" fromJunction="J2" toJunction="J0" end="300" vehsPerHour="128.94151773316707"/>
  <flow id="JF8402" begin="240" fromJunction="J2" toJunction="J4" end="300" vehsPerHour="91.7921126831378"/>
  <flow id="JF8403" begin="240" fromJunction="J3" toJunction="J0" end="300" vehsPerHour="44.168004345180954"/>
  <flow id="JF8404" begin="240" fromJunction="J3" toJunction="J2" end="300" vehsPerHour="130.15275797143633"/>
  <flow id="JF8405" begin="240" fromJunction="J4" toJunction="J3" end="300" vehsPerHour="17.15640413095804"/>
  <flow id="JF8406" begin="300" fromJunction="J2" toJunction="J0" end="360" vehsPerHour="74.66980903533431"/>
  <flow id="JF8407" begin="300" fromJunction="J3" toJunction="J0" end="360" vehsPerHour="9.114209854926779"/>
  <flow id="JF8408" begin="300" fromJunction="J4" toJunction="J0" end="360" vehsPerHour="67.41723916052335"/>
  <flow id="JF8409" begin="300" fromJunction="J4" toJunction="J3" end="360" vehsPerHour="29.23634071234133"/>
  <flow id="JF8410" begin="360" fromJunction="J0" toJunction="J2" end="420" vehsPerHour="57.36982988363186"/>
  <flow id="JF8411" begin="360" fromJunction="J0" toJunction="J3" end="420" vehsPerHour="127.6815669646921"/>
  <flow id="JF8412" begin="360" fromJunction="J2" toJunction="J0" end="420" vehsPerHour="3.86106647606264"/>
  <flow id="JF8413" begin="360" fromJunction="J2" toJunction="J3" end="420" vehsPerHour="17.412585276460263"/>
  <flow id="JF8414" begin="360" fromJunction="J2" toJunction="J4" end="420" vehsPerHour="57.63592810803711"/>
  <flow id="JF8415" begin="360" fromJunction="J3" toJunction="J0" end="420" vehsPerHour="44.19130556121328"/>
  <flow id="JF8416" begin="360" fromJunction="J3" toJunction="J2" end="420" vehsPerHour="45.33453590262695"/>
  <flow id="JF8417" begin="360" fromJunction="J3" toJunction="J4" end="420" vehsPerHour="87.86365531308842"/>
  <flow id="JF8418" begin="360" fromJunction="J4" toJunction="J0" end="420" vehsPerHour="122.45215428236592"/>
  <flow id="JF8419" begin="360" fromJunction="J4" toJunction="J2" end="420" vehsPerHour="32.932859905019015"/>
  <flow id="JF8420" begin="420" fromJunction="J0" toJunction="J4" end="480" vehsPerHour="94.01363700672921"/>
  <flow id="JF8421" begin="420" fromJunction="J2" toJunction="J4" end="480" vehsPerHour="76.71446283947594"/>
  <flow id="JF8422" begin="420" fromJunction="J3" toJunction="J2" end="480" vehsPerHour="46.27866012116227"/>
  <flow id="JF8423" begin="420" fromJunction="J4" toJunction="J0" end="480" vehsPerHour="122.96887858302709"/>
  <flow id="JF8424" begin="420" fromJunction="J4" toJunction="J3" end="480" vehsPerHour="129.9650973401658"/>
  <flow id="JF8425" begin="480" fromJunction="J0" toJunction="J3" end="540" vehsPerHour="42.14157569435064"/>
  <flow id="JF8426" begin="480" fromJunction="J0" toJunction="J4" end="540" vehsPerHour="100.8054215518472"/>
  <flow id="JF8427" begin="480" fromJunction="J2" toJunction="J0" end="540" vehsPerHour="70.05740909531778"/>
  <flow id="JF8428" begin="480" fromJunction="J3" toJunction="J0" end="540" vehsPerHour="16.303752133755708"/>
  <flow id="JF8429" begin="480" fromJunction="J3" toJunction="J2" end="540" vehsPerHour="16.998932884300817"/>
  <flow id="JF8430" begin="480" fromJunction="J4" toJunction="J0" end="540" vehsPerHour="49.144670291265584"/>
  <flow id="JF8431" begin="480" fromJunction="J4" toJunction="J2" end="540" vehsPerHour="115.56474463769057"/>
  <flow id="JF8432" begin="480" fromJunction="J4" toJunction="J3" end="540" vehsPerHour="44.170207094175474"/>
  <flow id="JF8433" begin="540" fromJunction="J0" toJunction="J2" end="600" vehsPerHour="26.816427053215435"/>
  <flow id="JF8434" begin="540" fromJunction="J0" toJunction="J3" end="600" vehsPerHour="32.04802524645101"/>
  <flow id="JF8435" begin="540" fromJunction="J2" toJunction="J0" end="600" vehsPerHour="84.72701714863277"/>
  <flow id="JF8436" begin="540" fromJunction="J2" toJunction="J3" end="600" vehsPerHour="115.2747037762995"/>
  <flow id="JF8437" begin="540" fromJunction="J2" toJunction="J4" end="600" vehsPerHour="48.403765173787406"/>
  <flow id="JF8438" begin="540" fromJunction="J3" toJunction="J0" end="600" vehsPerHour="99.23973589469188"/>
  <flow id="JF8439" begin="540" fromJunction="J3" toJunction="J4" end="600" vehsPerHour="83.77308577141459"/>
  <flow id="JF8440" begin="540" fromJunction="J4" toJunction="J0" end="600" vehsPerHour="15.301914759790225"/>
  <flow id="JF8441" begin="540" fromJunction="J4" toJunction="J2" end="600" vehsPerHour="114.34763340956701"/>
  <flow id="JF8442" begin="540" fromJunction="J4" toJunction="J3" end="600" vehsPerHour="51.282546533660664"/>
  <flow id="JF8443" begin="600" fromJunction="J0" toJunction="J2" end="660" vehsPerHour="51.828790918184076"/>
  <flow id="JF8444" begin="600" fromJunction="J0" toJunction="J3" end="660" vehsPerHour="124.67673315596377"/>
  <flow id="JF8445" begin="600" fromJunction="J0" toJunction="J4" end="660" vehsPerHour="73.37555255316039"/>
  <flow id="JF8446" begin="600" fromJunction="J2" toJunction="J0" end="660" vehsPerHour="106.0372666881909"/>
  <flow id="JF8447" begin="600" fromJunction="J2" toJunction="J3" end="660" vehsPerHour="61.7809731504415"/>
  <flow id="JF8448" begin="600" fromJunction="J2" toJunction="J4" end="660" vehsPerHour="16.478314613528735"/>
  <flow id="JF8449" begin="600" fromJunction="J3" toJunction="J0" end="660" vehsPerHour="1.1857102971967515"/>
  <flow id="JF8450" begin="600" fromJunction="J3" toJunction="J2" end="660" vehsPerHour="106.12231036114821"/>
  <flow id="JF8451" begin="600" fromJunction="J3" toJunction="J4" end="660" vehsPerHour="62.903667871819714"/>
  <flow id="JF8452" begin="600" fromJunction="J4" toJunction="J0" end="660" vehsPerHour="122.32661641739448"/>
  <flow id="JF8453" begin="600" fromJunction="J4" toJunction="J2" end="660" vehsPerHour="7.467646553447041"/>
  <flow id="JF8454" begin="600" fromJunction="J4" toJunction="J3" end="660" vehsPerHour="83.70146258895085"/>
  <flow id="JF8455" begin="660" fromJunction="J0" toJunction="J3" end="720" vehsPerHour="65.17023289755328"/>
  <flow id="JF8456" begin="660" fromJunction="J2" toJunction="J0" end="720" vehsPerHour="110.97420076746869"/>
  <flow id="JF8457" begin="660" fromJunction="J2" toJunction="J3" end="720" vehsPerHour="13.971436947909819"/>
  <flow id="JF8458" begin="660" fromJunction="J2" toJunction="J4" end="720" vehsPerHour="45.79453656954553"/>
  <flow id="JF8459" begin="660" fromJunction="J3" toJunction="J0" end="720" vehsPerHour="96.91016845989462"/>
  <flow id="JF8460" begin="660" fromJunction="J3" toJunction="J2" end="720" vehsPerHour="84.2764539405112"/>
  <flow id="JF8461" begin="660" fromJunction="J3" toJunction="J4" end="720" vehsPerHour="112.13336067408517"/>
  <flow id="JF8462" begin="660" fromJunction="J4" toJunction="J0" end="720" vehsPerHour="20.329458246374887"/>
  <flow id="JF8463" begin="660" fromJunction="J4" toJunction="J2" end="720" vehsPerHour="104.73675689965114"/>
  <flow id="JF8464" begin="660" fromJunction="J4" toJunction="J3" end="720" vehsPerHour="130.1874554809653"/>
  <flow id="JF8465" begin="720" fromJunction="J0" toJunction="J2" end="780" vehsPerHour="40.31113136083363"/>
  <flow id="JF8466" begin="720" fromJunction="J0" toJunction="J3" end="780" vehsPerHour="91.26333201726798"/>
  <flow id="JF8467" begin="720" fromJunction="J0" toJunction="J4" end="780" vehsPerHour="76.95868729600016"/>
  <flow id="JF8468" begin="720" fromJunction="J2" toJunction="J4" end="780" vehsPerHour="57.648852728510434"/>
  <flow id="JF8469" begin="720" fromJunction="J3" toJunction="J2" end="780" vehsPerHour="94.76488167414342"/>
  <flow id="JF8470" begin="720" fromJunction="J3" toJunction="J4" end="780" vehsPerHour="18.924558410127165"/>
  <flow id="JF8471" begin="720" fromJunction="J4" toJunction="J0" end="780" vehsPerHour="61.2560823677845"/>
  <flow id="JF8472" begin="780" fromJunction="J0" toJunction="J2" end="840" vehsPerHour="57.72527312321138"/>
  <flow id="JF8473" begin="780" fromJunction="J0" toJunction="J3" end="840" vehsPerHour="121.95872756159469"/>
  <flow id="JF8474" begin="780" fromJunction="J0" toJunction="J4" end="840" vehsPerHour="25.547890871985636"/>
  <flow id="JF8475" begin="780" fromJunction="J2" toJunction="J3" end="840" vehsPerHour="3.948369977655759"/>
  <flow id="JF8476" begin="780" fromJunction="J2" toJunction="J4" end="840" vehsPerHour="33.19774068415762"/>
  <flow id="JF8477" begin="780" fromJunction="J3" toJunction="J4" end="840" vehsPerHour="62.35097672424737"/>
  <flow id="JF8478" begin="780" fromJunction="J4" toJunction="J0" end="840" vehsPerHour="105.79041012296635"/>
  <flow id="JF8479" begin="780" fromJunction="J4" toJunction="J3" end="840" vehsPerHour="80.49280801084245"/>
  <flow id="JF8480" begin="840" fromJunction="J0" toJunction="J3" end="900" vehsPerHour="132.16838809596175"/>
  <flow id="JF8481" begin="840" fromJunction="J0" toJunction="J4" end="900" vehsPerHour="32.046814668306226"/>
  <flow id="JF8482" begin="840" fromJunction="J2" toJunction="J0" end="900" vehsPerHour="129.09326633325074"/>
  <flow id="JF8483" begin="840" fromJunction="J2" toJunction="J3" end="900" vehsPerHour="110.55041918598285"/>
  <flow id="JF8484" begin="840" fromJunction="J2" toJunction="J4" end="900" vehsPerHour="90.82380040666236"/>
  <flow id="JF8485" begin="840" fromJunction="J3" toJunction="J0" end="900" vehsPerHour="35.690045777484926"/>
  <flow id="JF8486" begin="840" fromJunction="J3" toJunction="J2" end="900" vehsPerHour="22.92758825134883"/>
  <flow id="JF8487" begin="840" fromJunction="J4" toJunction="J0" end="900" vehsPerHour="39.076710692090785"/>
  <flow id="JF8488" begin="900" fromJunction="J0" toJunction="J2" end="960" vehsPerHour="83.71634210278413"/>
  <flow id="JF8489" begin="900" fromJunction="J0" toJunction="J4" end="960" vehsPerHour="11.359962987125215"/>
  <flow id="JF8490" begin="900" fromJunction="J2" toJunction="J0" end="960" vehsPerHour="16.39415907956808"/>
  <flow id="JF8491" begin="900" fromJunction="J2" toJunction="J4" end="960" vehsPerHour="8.333690101445802"/>
  <flow id="JF8492" begin="900" fromJunction="J3" toJunction="J0" end="960" vehsPerHour="93.33012218757463"/>
  <flow id="JF8493" begin="900" fromJunction="J4" toJunction="J0" end="960" vehsPerHour="32.12273030688198"/>
  <flow id="JF8494" begin="960" fromJunction="J0" toJunction="J2" end="1020" vehsPerHour="38.568059505131004"/>
  <flow id="JF8495" begin="960" fromJunction="J2" toJunction="J0" end="1020" vehsPerHour="115.05601212284296"/>
  <flow id="JF8496" begin="960" fromJunction="J2" toJunction="J4" end="1020" vehsPerHour="32.87932804757621"/>
  <flow id="JF8497" begin="960" fromJunction="J3" toJunction="J0" end="1020" vehsPerHour="12.911656610029528"/>
  <flow id="JF8498" begin="960" fromJunction="J3" toJunction="J2" end="1020" vehsPerHour="99.69310479350408"/>
  <flow id="JF8499" begin="960" fromJunction="J4" toJunction="J2" end="1020" vehsPerHour="121.616677556505"/>
  <flow id="JF8500" begin="1020" fromJunction="J0" toJunction="J2" end="1080" vehsPerHour="109.15586788791948"/>
  <flow id="JF8501" begin="1020" fromJunction="J0" toJunction="J4" end="1080" vehsPerHour="80.70676337937542"/>
  <flow id="JF8502" begin="1020" fromJunction="J2" toJunction="J0" end="1080" vehsPerHour="77.86644538072069"/>
  <flow id="JF8503" begin="1020" fromJunction="J2" toJunction="J4" end="1080" vehsPerHour="81.39513190195063"/>
  <flow id="JF8504" begin="1020" fromJunction="J3" toJunction="J0" end="1080" vehsPerHour="7.27304476872775"/>
  <flow id="JF8505" begin="1020" fromJunction="J3" toJunction="J2" end="1080" vehsPerHour="77.56347855589422"/>
  <flow id="JF8506" begin="1020" fromJunction="J3" toJunction="J4" end="1080" vehsPerHour="44.338642955910885"/>
  <flow id="JF8507" begin="1020" fromJunction="J4" toJunction="J2" end="1080" vehsPerHour="21.62845855534891"/>
  <flow id="JF8508" begin="1020" fromJunction="J4" toJunction="J3" end="1080" vehsPerHour="130.20742192084293"/>
  <flow id="JF8509" begin="1080" fromJunction="J0" toJunction="J2" end="1140" vehsPerHour="102.85079348048015"/>
  <flow id="JF8510" begin="1080" fromJunction="J0" toJunction="J3" end="1140" vehsPerHour="57.00293894105374"/>
  <flow id="JF8511" begin="1080" fromJunction="J2" toJunction="J0" end="1140" vehsPerHour="96.5151687563312"/>
  <flow id="JF8512" begin="1080" fromJunction="J2" toJunction="J3" end="1140" vehsPerHour="69.37743796535348"/>
  <flow id="JF8513" begin="1080" fromJunction="J2" toJunction="J4" end="1140" vehsPerHour="118.27924681593376"/>
  <flow id="JF8514" begin="1080" fromJunction="J3" toJunction="J2" end="1140" vehsPerHour="115.73038023319707"/>
  <flow id="JF8515" begin="1080" fromJunction="J3" toJunction="J4" end="1140" vehsPerHour="55.120551670356065"/>
  <flow id="JF8516" begin="1080" fromJunction="J4" toJunction="J0" end="1140" vehsPerHour="41.04785090072891"/>
  <flow id="JF8517" begin="1080" fromJunction="J4" toJunction="J2" end="1140" vehsPerHour="116.76100174790149"/>
  <flow id="JF8518" begin="1140" fromJunction="J0" toJunction="J2" end="1200" vehsPerHour="30.03532996279882"/>
  <flow id="JF8519" begin="1140" fromJunction="J0" toJunction="J3" end="1200" vehsPerHour="100.68459399583048"/>
  <flow id="JF8520" begin="1140" fromJunction="J2" toJunction="J3" end="1200" vehsPerHour="90.52318286039322"/>
  <flow id="JF8521" begin="1140" fromJunction="J3" toJunction="J0" end="1200" vehsPerHour="51.41751837591717"/>
  <flow id="JF8522" begin="1140" fromJunction="J3" toJunction="J2" end="1200" vehsPerHour="120.90054967364442"/>
  <flow id="JF8523" begin="1140" fromJunction="J4" toJunction="J2" end="1200" vehsPerHour="10.60310532662803"/>
  <flow id="JF8524" begin="1200" fromJunction="J0" toJunction="J3" end="1260" vehsPerHour="107.24587898642358"/>
  <flow id="JF8525" begin="1200" fromJunction="J0" toJunction="J4" end="1260" vehsPerHour="57.152333863409154"/>
  <flow id="JF8526" begin="1200" fromJunction="J2" toJunction="J3" end="1260" vehsPerHour="7.512198883245468"/>
  <flow id="JF8527" begin="1200" fromJunction="J2" toJunction="J4" end="1260" vehsPerHour="22.489774385515826"/>
  <flow id="JF8528" begin="1200" fromJunction="J3" toJunction="J0" end="1260" vehsPerHour="86.98532882754688"/>
  <flow id="JF8529" begin="1200" fromJunction="J3" toJunction="J2" end="1260" vehsPerHour="117.29986863029278"/>
  <flow id="JF8530" begin="1200" fromJunction="J3" toJunction="J4" end="1260" vehsPerHour="88.15870603561942"/>
  <flow id="JF8531" begin="1200" fromJunction="J4" toJunction="J0" end="1260" vehsPerHour="66.83880460588358"/>
  <flow id="JF8532" begin="1200" fromJunction="J4" toJunction="J2" end="1260" vehsPerHour="32.592083591138845"/>
  <flow id="JF8533" begin="1200" fromJunction="J4" toJunction="J3" end="1260" vehsPerHour="50.256780995217156"/>
  <flow id="JF8534" begin="1260" fromJunction="J0" toJunction="J4" end="1320" vehsPerHour="10.159178230942246"/>
  <flow id="JF8535" begin="1260" fromJunction="J2" toJunction="J0" end="1320" vehsPerHour="4.440681476375925"/>
  <flow id="JF8536" begin="1260" fromJunction="J2" toJunction="J3" end="1320" vehsPerHour="79.3658905595465"/>
  <flow id="JF8537" begin="1260" fromJunction="J2" toJunction="J4" end="1320" vehsPerHour="49.44583986913724"/>
  <flow id="JF8538" begin="1260" fromJunction="J3" toJunction="J2" end="1320" vehsPerHour="38.31983595557808"/>
  <flow id="JF8539" begin="1260" fromJunction="J3" toJunction="J4" end="1320" vehsPerHour="33.92456678883586"/>
  <flow id="JF8540" begin="1260" fromJunction="J4" toJunction="J0" end="1320" vehsPerHour="41.286928299556884"/>
  <flow id="JF8541" begin="1260" fromJunction="J4" toJunction="J2" end="1320" vehsPerHour="38.3665838117578"/>
  <flow id="JF8542" begin="1260" fromJunction="J4" toJunction="J3" end="1320" vehsPerHour="67.14992946771252"/>
  <flow id="JF8543" begin="1320" fromJunction="J0" toJunction="J2" end="1380" vehsPerHour="83.10156137424681"/>
  <flow id="JF8544" begin="1320" fromJunction="J0" toJunction="J3" end="1380" vehsPerHour="36.24365688161295"/>
  <flow id="JF8545" begin="1320" fromJunction="J2" toJunction="J0" end="1380" vehsPerHour="17.922504101607167"/>
  <flow id="JF8546" begin="1320" fromJunction="J2" toJunction="J3" end="1380" vehsPerHour="43.796798294519306"/>
  <flow id="JF8547" begin="1320" fromJunction="J2" toJunction="J4" end="1380" vehsPerHour="133.5643781598095"/>
  <flow id="JF8548" begin="1320" fromJunction="J3" toJunction="J0" end="1380" vehsPerHour="21.300774108963168"/>
  <flow id="JF8549" begin="1320" fromJunction="J3" toJunction="J2" end="1380" vehsPerHour="131.70697274899052"/>
  <flow id="JF8550" begin="1320" fromJunction="J4" toJunction="J0" end="1380" vehsPerHour="3.967264322397585"/>
  <flow id="JF8551" begin="1320" fromJunction="J4" toJunction="J3" end="1380" vehsPerHour="2.3368861169539437"/>
  <flow id="JF8552" begin="1380" fromJunction="J0" toJunction="J2" end="1440" vehsPerHour="6.794089581547996"/>
  <flow id="JF8553" begin="1380" fromJunction="J0" toJunction="J3" end="1440" vehsPerHour="129.7140303538528"/>
  <flow id="JF8554" begin="1380" fromJunction="J2" toJunction="J0" end="1440" vehsPerHour="36.94780627961401"/>
  <flow id="JF8555" begin="1380" fromJunction="J2" toJunction="J3" end="1440" vehsPerHour="15.42703246466054"/>
  <flow id="JF8556" begin="1380" fromJunction="J2" toJunction="J4" end="1440" vehsPerHour="130.26744799685335"/>
  <flow id="JF8557" begin="1380" fromJunction="J3" toJunction="J0" end="1440" vehsPerHour="49.40028231576476"/>
  <flow id="JF8558" begin="1380" fromJunction="J4" toJunction="J2" end="1440" vehsPerHour="109.77178492028075"/>
  <flow id="JF8559" begin="1380" fromJunction="J4" toJunction="J3" end="1440" vehsPerHour="1.918363334779829"/>
  <flow id="JF8560" begin="1440" fromJunction="J0" toJunction="J3" end="1500" vehsPerHour="133.8368348011233"/>
  <flow id="JF8561" begin="1440" fromJunction="J2" toJunction="J0" end="1500" vehsPerHour="131.91235808540623"/>
  <flow id="JF8562" begin="1440" fromJunction="J2" toJunction="J3" end="1500" vehsPerHour="116.77034906571662"/>
  <flow id="JF8563" begin="1440" fromJunction="J3" toJunction="J0" end="1500" vehsPerHour="68.88241370984012"/>
  <flow id="JF8564" begin="1440" fromJunction="J3" toJunction="J2" end="1500" vehsPerHour="123.77322422673619"/>
  <flow id="JF8565" begin="1440" fromJunction="J3" toJunction="J4" end="1500" vehsPerHour="95.75068716290758"/>
  <flow id="JF8566" begin="1440" fromJunction="J4" toJunction="J0" end="1500" vehsPerHour="13.514363091442206"/>
  <flow id="JF8567" begin="1440" fromJunction="J4" toJunction="J2" end="1500" vehsPerHour="25.80067151201666"/>
  <flow id="JF8568" begin="1500" fromJunction="J0" toJunction="J2" end="1560" vehsPerHour="90.49913764846393"/>
  <flow id="JF8569" begin="1500" fromJunction="J0" toJunction="J3" end="1560" vehsPerHour="7.664296223586394"/>
  <flow id="JF8570" begin="1500" fromJunction="J0" toJunction="J4" end="1560" vehsPerHour="129.80875757306367"/>
  <flow id="JF8571" begin="1500" fromJunction="J2" toJunction="J0" end="1560" vehsPerHour="76.64914635349191"/>
  <flow id="JF8572" begin="1500" fromJunction="J3" toJunction="J0" end="1560" vehsPerHour="12.815936084763639"/>
  <flow id="JF8573" begin="1500" fromJunction="J3" toJunction="J2" end="1560" vehsPerHour="121.18647644094933"/>
  <flow id="JF8574" begin="1500" fromJunction="J3" toJunction="J4" end="1560" vehsPerHour="37.319895352240955"/>
  <flow id="JF8575" begin="1500" fromJunction="J4" toJunction="J0" end="1560" vehsPerHour="28.82312282341941"/>
  <flow id="JF8576" begin="1500" fromJunction="J4" toJunction="J2" end="1560" vehsPerHour="115.6059224502843"/>
  <flow id="JF8577" begin="1500" fromJunction="J4" toJunction="J3" end="1560" vehsPerHour="103.84584309269015"/>
  <flow id="JF8578" begin="1560" fromJunction="J0" toJunction="J2" end="1620" vehsPerHour="128.47990344634272"/>
  <flow id="JF8579" begin="1560" fromJunction="J2" toJunction="J3" end="1620" vehsPerHour="120.34295113141853"/>
  <flow id="JF8580" begin="1560" fromJunction="J2" toJunction="J4" end="1620" vehsPerHour="59.1363255997462"/>
  <flow id="JF8581" begin="1560" fromJunction="J3" toJunction="J0" end="1620" vehsPerHour="55.52230094720846"/>
  <flow id="JF8582" begin="1560" fromJunction="J3" toJunction="J2" end="1620" vehsPerHour="22.16438847386394"/>
  <flow id="JF8583" begin="1560" fromJunction="J3" toJunction="J4" end="1620" vehsPerHour="120.46616592582319"/>
  <flow id="JF8584" begin="1560" fromJunction="J4" toJunction="J0" end="1620" vehsPerHour="93.67732248216015"/>
  <flow id="JF8585" begin="1560" fromJunction="J4" toJunction="J2" end="1620" vehsPerHour="120.72360437225232"/>
  <flow id="JF8586" begin="1620" fromJunction="J0" toJunction="J2" end="1680" vehsPerHour="67.33702037822947"/>
  <flow id="JF8587" begin="1620" fromJunction="J0" toJunction="J3" end="1680" vehsPerHour="25.911897814082533"/>
  <flow id="JF8588" begin="1620" fromJunction="J2" toJunction="J4" end="1680" vehsPerHour="79.77412999992185"/>
  <flow id="JF8589" begin="1620" fromJunction="J3" toJunction="J0" end="1680" vehsPerHour="116.37320873888089"/>
  <flow id="JF8590" begin="1620" fromJunction="J3" toJunction="J4" end="1680" vehsPerHour="37.205324435067794"/>
  <flow id="JF8591" begin="1620" fromJunction="J4" toJunction="J0" end="1680" vehsPerHour="1.104772605664428"/>
  <flow id="JF8592" begin="1620" fromJunction="J4" toJunction="J2" end="1680" vehsPerHour="31.33427738485064"/>
  <flow id="JF8593" begin="1620" fromJunction="J4" toJunction="J3" end="1680" vehsPerHour="39.31182569255856"/>
  <flow id="JF8594" begin="1680" fromJunction="J0" toJunction="J3" end="1740" vehsPerHour="134.6983395966158"/>
  <flow id="JF8595" begin="1680" fromJunction="J0" toJunction="J4" end="1740" vehsPerHour="108.16783713102686"/>
  <flow id="JF8596" begin="1680" fromJunction="J2" toJunction="J4" end="1740" vehsPerHour="35.94759953028174"/>
  <flow id="JF8597" begin="1680" fromJunction="J3" toJunction="J0" end="1740" vehsPerHour="17.709719421982047"/>
  <flow id="JF8598" begin="1680" fromJunction="J3" toJunction="J2" end="1740" vehsPerHour="1.7646057822867047"/>
  <flow id="JF8599" begin="1680" fromJunction="J3" toJunction="J4" end="1740" vehsPerHour="20.929015436904457"/>
  <flow id="JF8600" begin="1680" fromJunction="J4" toJunction="J3" end="1740" vehsPerHour="22.049209317233505"/>
  <flow id="JF8601" begin="1740" fromJunction="J0" toJunction="J3" end="1800" vehsPerHour="99.18691936446866"/>
  <flow id="JF8602" begin="1740" fromJunction="J2" toJunction="J0" end="1800" vehsPerHour="51.21687070349474"/>
  <flow id="JF8603" begin="1740" fromJunction="J2" toJunction="J4" end="1800" vehsPerHour="53.77211327874839"/>
  <flow id="JF8604" begin="1740" fromJunction="J3" toJunction="J0" end="1800" vehsPerHour="24.388243707281575"/>
  <flow id="JF8605" begin="1740" fromJunction="J3" toJunction="J2" end="1800" vehsPerHour="136.14990138155216"/>
  <flow id="JF8606" begin="1740" fromJunction="J3" toJunction="J4" end="1800" vehsPerHour="134.0158835262447"/>
  <flow id="JF8607" begin="1740" fromJunction="J4" toJunction="J2" end="1800" vehsPerHour="45.98892153185594"/>
  <flow id="JF8608" begin="1740" fromJunction="J4" toJunction="J3" end="1800" vehsPerHour="105.8694807077961"/>
  <flow id="JF8609" begin="1800" fromJunction="J0" toJunction="J2" end="1860" vehsPerHour="79.41461239385316"/>
  <flow id="JF8610" begin="1800" fromJunction="J0" toJunction="J3" end="1860" vehsPerHour="102.87420324623031"/>
  <flow id="JF8611" begin="1800" fromJunction="J0" toJunction="J4" end="1860" vehsPerHour="118.11331655727662"/>
  <flow id="JF8612" begin="1800" fromJunction="J2" toJunction="J0" end="1860" vehsPerHour="84.20080241746635"/>
  <flow id="JF8613" begin="1800" fromJunction="J2" toJunction="J3" end="1860" vehsPerHour="104.87419043781819"/>
  <flow id="JF8614" begin="1800" fromJunction="J3" toJunction="J2" end="1860" vehsPerHour="116.03711879759635"/>
  <flow id="JF8615" begin="1800" fromJunction="J3" toJunction="J4" end="1860" vehsPerHour="22.4146807043398"/>
  <flow id="JF8616" begin="1800" fromJunction="J4" toJunction="J0" end="1860" vehsPerHour="83.35936506050685"/>
  <flow id="JF8617" begin="1800" fromJunction="J4" toJunction="J3" end="1860" vehsPerHour="113.45167951357138"/>
  <flow id="JF8618" begin="1860" fromJunction="J0" toJunction="J2" end="1920" vehsPerHour="38.28965212771223"/>
  <flow id="JF8619" begin="1860" fromJunction="J0" toJunction="J3" end="1920" vehsPerHour="7.397706135203299"/>
  <flow id="JF8620" begin="1860" fromJunction="J0" toJunction="J4" end="1920" vehsPerHour="58.42838714590734"/>
  <flow id="JF8621" begin="1860" fromJunction="J3" toJunction="J0" end="1920" vehsPerHour="132.60612874944903"/>
  <flow id="JF8622" begin="1860" fromJunction="J3" toJunction="J2" end="1920" vehsPerHour="29.590673079291268"/>
  <flow id="JF8623" begin="1860" fromJunction="J4" toJunction="J0" end="1920" vehsPerHour="43.69881133338736"/>
  <flow id="JF8624" begin="1860" fromJunction="J4" toJunction="J2" end="1920" vehsPerHour="79.08527654337256"/>
  <flow id="JF8625" begin="1860" fromJunction="J4" toJunction="J3" end="1920" vehsPerHour="29.347109082184723"/>
  <flow id="JF8626" begin="1920" fromJunction="J0" toJunction="J3" end="1980" vehsPerHour="112.08190424562954"/>
  <flow id="JF8627" begin="1920" fromJunction="J0" toJunction="J4" end="1980" vehsPerHour="78.84398317204196"/>
  <flow id="JF8628" begin="1920" fromJunction="J2" toJunction="J3" end="1980" vehsPerHour="8.288513699339457"/>
  <flow id="JF8629" begin="1920" fromJunction="J2" toJunction="J4" end="1980" vehsPerHour="23.391171716592076"/>
  <flow id="JF8630" begin="1920" fromJunction="J3" toJunction="J4" end="1980" vehsPerHour="30.430698663519802"/>
  <flow id="JF8631" begin="1920" fromJunction="J4" toJunction="J0" end="1980" vehsPerHour="66.11396170200115"/>
  <flow id="JF8632" begin="1980" fromJunction="J0" toJunction="J2" end="2040" vehsPerHour="60.05467228715289"/>
  <flow id="JF8633" begin="1980" fromJunction="J0" toJunction="J3" end="2040" vehsPerHour="97.5780502113746"/>
  <flow id="JF8634" begin="1980" fromJunction="J2" toJunction="J0" end="2040" vehsPerHour="42.1290571922875"/>