<?xml version="1.0" encoding="UTF-8"?>
<routes xmlns:xsi="http://www.w3.org/2001/XMLSchema-instance" xsi:noNamespaceSchemaLocation="http://sumo.dlr.de/xsd/routes_file.xsd">
  <flow id="JF0" begin="0" fromJunction="J0" toJunction="J2" end="60" vehsPerHour="40.928074301141365"/>
  <flow id="JF1" begin="0" fromJunction="J0" toJunction="J3" end="60" vehsPerHour="99.52168460670124"/>
  <flow id="JF2" begin="0" fromJunction="J2" toJunction="J0" end="60" vehsPerHour="54.48870445575705"/>
  <flow id="JF3" begin="0" fromJunction="J2" toJunction="J3" end="60" vehsPerHour="127.38303916409217"/>
  <flow id="JF4" begin="0" fromJunction="J3" toJunction="J0" end="60" vehsPerHour="101.44493986519689"/>
  <flow id="JF5" begin="0" fromJunction="J4" toJunction="J3" end="60" vehsPerHour="65.55641017191073"/>
  <flow id="JF6" begin="60" fromJunction="J0" toJunction="J2" end="120" vehsPerHour="55.240810051196334"/>
  <flow id="JF7" begin="60" fromJunction="J0" toJunction="J3" end="120" vehsPerHour="44.66255927446695"/>
  <flow id="JF8" begin="60" fromJunction="J0" toJunction="J4" end="120" vehsPerHour="106.10531789091525"/>
  <flow id="JF9" begin="60" fromJunction="J2" toJunction="J3" end="120" vehsPerHour="95.87325410639136"/>
  <flow id="JF10" begin="60" fromJunction="J2" toJunction="J4" end="120" vehsPerHour="27.13287820188867"/>
  <flow id="JF11" begin="120" fromJunction="J0" toJunction="J2" end="180" vehsPerHour="119.24083807728098"/>
  <flow id="JF12" begin="120" fromJunction="J0" toJunction="J3" end="180" vehsPerHour="64.0471728180691"/>
  <flow id="JF13" begin="120" fromJunction="J2" toJunction="J0" end="180" vehsPerHour="120.66546630920311"/>
  <flow id="JF14" begin="120" fromJunction="J2" toJunction="J4" end="180" vehsPerHour="117.39390418753726"/>
  <flow id="JF15" begin="120" fromJunction="J3" toJunction="J0" end="180" vehsPerHour="112.83984618773276"/>
  <flow id="JF16" begin="120" fromJunction="J3" toJunction="J2" end="180" vehsPerHour="37.14507595773194"/>
  <flow id="JF17" begin="120" fromJunction="J3" toJunction="J4" end="180" vehsPerHour="55.65059435892519"/>
  <flow id="JF18" begin="120" fromJunction="J4" toJunction="J0" end="180" vehsPerHour="24.926616954328257"/>
  <flow id="JF19" begin="120" fromJunction="J4" toJunction="J2" end="180" vehsPerHour="132.118527827298"/>
  <flow id="JF20" begin="120" fromJunction="J4" toJunction="J3" end="180" vehsPerHour="86.30980066804842"/>
  <flow id="JF21" begin="180" fromJunction="J0" toJunction="J2" end="240" vehsPerHour="5.068807417513006"/>
  <flow id="JF22" begin="180" fromJunction="J0" toJunction="J3" end="240" vehsPerHour="107.4310380855199"/>
  <flow id="JF23" begin="180" fromJunction="J0" toJunction="J4" end="240" vehsPerHour="72.16199754694597"/>
  <flow id="JF24" begin="180" fromJunction="J2" toJunction="J0" end="240" vehsPerHour="104.34469382461847"/>
  <flow id="JF25" begin="180" fromJunction="J2" toJunction="J3" end="240" vehsPerHour="56.06448138638346"/>
  <flow id="JF26" begin="180" fromJunction="J2" toJunction="J4" end="240" vehsPerHour="3.004002655980404"/>
  <flow id="JF27" begin="180" fromJunction="J3" toJunction="J2" end="240" vehsPerHour="31.85612319209994"/>
  <flow id="JF28" begin="180" fromJunction="J4" toJunction="J0" end="240" vehsPerHour="134.6004001844628"/>
  <flow id="JF29" begin="180" fromJunction="J4" toJunction="J2" end="240" vehsPerHour="75.60422341737767"/>
  <flow id="JF30" begin="240" fromJunction="J0" toJunction="J2" end="300" vehsPerHour="8.745781149424516"/>
  <flow id="JF31" begin="240" fromJunction="J2" toJunction="J0" end="300" vehsPerHour="111.0947022318798"/>
  <flow id="JF32" begin="240" fromJunction="J2" toJunction="J4" end="300" vehsPerHour="110.63363450631509"/>
  <flow id="JF33" begin="240" fromJunction="J3" toJunction="J0" end="300" vehsPerHour="7.199949299565589"/>
  <flow id="JF34" begin="240" fromJunction="J3" toJunction="J2" end="300" vehsPerHour="3.5016139412794502"/>
  <flow id="JF35" begin="240" fromJunction="J3" toJunction="J4" end="300" vehsPerHour="53.40417863877977"/>
  <flow id="JF36" begin="240" fromJunction="J4" toJunction="J0" end="300" vehsPerHour="130.50102386348277"/>
  <flow id="JF37" begin="240" fromJunction="J4" toJunction="J3" end="300" vehsPerHour="128.88451235259862"/>
  <flow id="JF38" begin="300" fromJunction="J0" toJunction="J2" end="360" vehsPerHour="36.832931027449156"/>
  <flow id="JF39" begin="300" fromJunction="J0" toJunction="J4" end="360" vehsPerHour="119.60271339136557"/>
  <flow id="JF40" begin="300" fromJunction="J2" toJunction="J0" end="360" vehsPerHour="130.0915878677093"/>
  <flow id="JF41" begin="300" fromJunction="J3" toJunction="J0" end="360" vehsPerHour="68.20038692333496"/>
  <flow id="JF42" begin="300" fromJunction="J3" toJunction="J2" end="360" vehsPerHour="11.743872452626656"/>
  <flow id="JF43" begin="300" fromJunction="J3" toJunction="J4" end="360" vehsPerHour="29.493891259917937"/>
  <flow id="JF44" begin="300" fromJunction="J4" toJunction="J0" end="360" vehsPerHour="64.05032704511748"/>
  <flow id="JF45" begin="300" fromJunction="J4" toJunction="J2" end="360" vehsPerHour="115.12003856389957"/>
  <flow id="JF46" begin="360" fromJunction="J0" toJunction="J3" end="420" vehsPerHour="27.701433095165633"/>
  <flow id="JF47" begin="360" fromJunction="J2" toJunction="J0" end="420" vehsPerHour="59.60325693464621"/>
  <flow id="JF48" begin="360" fromJunction="J2" toJunction="J3" end="420" vehsPerHour="8.11400415746615"/>
  <flow id="JF49" begin="360" fromJunction="J3" toJunction="J0" end="420" vehsPerHour="118.77966463541554"/>
  <flow id="JF50" begin="360" fromJunction="J3" toJunction="J2" end="420" vehsPerHour="24.21470193963056"/>
  <flow id="JF51" begin="360" fromJunction="J4" toJunction="J0" end="420" vehsPerHour="108.95333159187861"/>
  <flow id="JF52" begin="360" fromJunction="J4" toJunction="J2" end="420" vehsPerHour="60.795336825922156"/>
  <flow id="JF53" begin="420" fromJunction="J0" toJunction="J2" end="480" vehsPerHour="26.287195885480873"/>
  <flow id="JF54" begin="420" fromJunction="J0" toJunction="J3" end="480" vehsPerHour="90.77446942096489"/>
  <flow id="JF55" begin="420" fromJunction="J0" toJunction="J4" end="480" vehsPerHour="125.8289363954533"/>
  <flow id="JF56" begin="420" fromJunction="J2" toJunction="J3" end="480" vehsPerHour="4.323630533067983"/>
  <flow id="JF57" begin="420" fromJunction="J3" toJunction="J0" end="480" vehsPerHour="27.946391059152035"/>
  <flow id="JF58" begin="420" fromJunction="J3" toJunction="J2" end="480" vehsPerHour="22.528562206564747"/>
  <flow id="JF59" begin="420" fromJunction="J3" toJunction="J4" end="480" vehsPerHour="119.07425770940621"/>
  <flow id="JF60" begin="420" fromJunction="J4" toJunction="J2" end="480" vehsPerHour="10.579503415293717"/>
  <flow id="JF61" begin="420" fromJunction="J4" toJunction="J3" end="480" vehsPerHour="117.12899319754263"/>
  <flow id="JF62" begin="480" fromJunction="J0" toJunction="J2" end="540" vehsPerHour="57.4760058620814"/>
  <flow id="JF63" begin="480" fromJunction="J0" toJunction="J3" end="540" vehsPerHour="96.28520876129747"/>
  <flow id="JF64" begin="480" fromJunction="J2" toJunction="J0" end="540" vehsPerHour="66.0067955060373"/>
  <flow id="JF65" begin="480" fromJunction="J2" toJunction="J3" end="540" vehsPerHour="123.48561302881305"/>
  <flow id="JF66" begin="480" fromJunction="J2" toJunction="J4" end="540" vehsPerHour="121.78422660071062"/>
  <flow id="JF67" begin="480" fromJunction="J3" toJunction="J0" end="540" vehsPerHour="10.587842178691213"/>
  <flow id="JF68" begin="480" fromJunction="J3" toJunction="J2" end="540" vehsPerHour="20.500410629838992"/>
  <flow id="JF69" begin="480" fromJunction="J3" toJunction="J4" end="540" vehsPerHour="13.068313475678716"/>
  <flow id="JF70" begin="480" fromJunction="J4" toJunction="J0" end="540" vehsPerHour="73.13216566738525"/>
  <flow id="JF71" begin="480" fromJunction="J4" toJunction="J3" end="540" vehsPerHour="122.64909872065601"/>
  <flow id="JF72" begin="540" fromJunction="J0" toJunction="J2" end="600" vehsPerHour="14.34851176705437"/>
  <flow id="JF73" begin="540" fromJunction="J0" toJunction="J3" end="600" vehsPerHour="87.729390942971"/>
  <flow id="JF74" begin="540" fromJunction="J0" toJunction="J4" end="600" vehsPerHour="78.15443465327974"/>
  <flow id="JF75" begin="540" fromJunction="J2" toJunction="J0" end="600" vehsPerHour="69.3779184513192"/>
  <flow id="JF76" begin="540" fromJunction="J3" toJunction="J0" end="600" vehsPerHour="105.54797844176386"/>
  <flow id="JF77" begin="540" fromJunction="J3" toJunction="J2" end="600" vehsPerHour="11.421418840690428"/>
  <flow id="JF78" begin="540" fromJunction="J3" toJunction="J4" end="600" vehsPerHour="50.534973367717384"/>
  <flow id="JF79" begin="540" fromJunction="J4" toJunction="J0" end="600" vehsPerHour="57.96827219463842"/>
  <flow id="JF80" begin="540" fromJunction="J4" toJunction="J3" end="600" vehsPerHour="108.46047412027595"/>
  <flow id="JF81" begin="600" fromJunction="J0" toJunction="J2" end="660" vehsPerHour="136.8985156182573"/>
  <flow id="JF82" begin="600" fromJunction="J0" toJunction="J3" end="660" vehsPerHour="80.9504920724641"/>
  <flow id="JF83" begin="600" fromJunction="J0" toJunction="J4" end="660" vehsPerHour="99.56537785168607"/>
  <flow id="JF84" begin="600" fromJunction="J2" toJunction="J0" end="660" vehsPerHour="85.39327366256524"/>
  <flow id="JF85" begin="600" fromJunction="J2" toJunction="J3" end="660" vehsPerHour="83.13147885870208"/>
  <flow id="JF86" begin="600" fromJunction="J2" toJunction="J4" end="660" vehsPerHour="126.65254876018021"/>
  <flow id="JF87" begin="600" fromJunction="J3" toJunction="J0" end="660" vehsPerHour="46.332301644681436"/>
  <flow id="JF88" begin="600" fromJunction="J3" toJunction="J2" end="660" vehsPerHour="40.72698865581599"/>
  <flow id="JF89" begin="600" fromJunction="J3" toJunction="J4" end="660" vehsPerHour="6.432877828950459"/>
  <flow id="JF90" begin="600" fromJunction="J4" toJunction="J0" end="660" vehsPerHour="8.633051354700271"/>
  <flow id="JF91" begin="600" fromJunction="J4" toJunction="J3" end="660" vehsPerHour="98.47014433321145"/>
  <flow id="JF92" begin="660" fromJunction="J0" toJunction="J2" end="720" vehsPerHour="65.81335501721439"/>
  <flow id="JF93" begin="660" fromJunction="J0" toJunction="J3" end="720" vehsPerHour="17.43885342738194"/>
  <flow id="JF94" begin="660" fromJunction="J2" toJunction="J0" end="720" vehsPerHour="45.123044129155936"/>
  <flow id="JF95" begin="660" fromJunction="J2" toJunction="J3" end="720" vehsPerHour="18.105425788202826"/>
  <flow id="JF96" begin="660" fromJunction="J2" toJunction="J4" end="720" vehsPerHour="103.49843611423674"/>
  <flow id="JF97" begin="660" fromJunction="J3" toJunction="J0" end="720" vehsPerHour="122.95907248628535"/>
  <flow id="JF98" begin="660" fromJunction="J3" toJunction="J2" end="720" vehsPerHour="104.93137214515836"/>
  <flow id="JF99" begin="660" fromJunction="J3" toJunction="J4" end="720" vehsPerHour="83.2363565823031"/>
  <flow id="JF100" begin="660" fromJunction="J4" toJunction="J2" end="720" vehsPerHour="124.63108833806504"/>
  <flow id="JF101" begin="660" fromJunction="J4" toJunction="J3" end="720" vehsPerHour="83.22531379656866"/>
  <flow id="JF102" begin="720" fromJunction="J0" toJunction="J2" end="780" vehsPerHour="38.00406884733466"/>
  <flow id="JF103" begin="720" fromJunction="J0" toJunction="J3" end="780" vehsPerHour="49.647222648737795"/>
  <flow id="JF104" begin="720" fromJunction="J0" toJunction="J4" end="780" vehsPerHour="67.23189292743915"/>
  <flow id="JF105" begin="720" fromJunction="J2" toJunction="J0" end="780" vehsPerHour="41.258550613015096"/>
  <flow id="JF106" begin="720" fromJunction="J2" toJunction="J3" end="780" vehsPerHour="114.66676665188153"/>
  <flow id="JF107" begin="720" fromJunction="J2" toJunction="J4" end="780" vehsPerHour="120.74287782713019"/>
  <flow id="JF108" begin="720" fromJunction="J3" toJunction="J2" end="780" vehsPerHour="88.9947215728555"/>
  <flow id="JF109" begin="720" fromJunction="J4" toJunction="J2" end="780" vehsPerHour="46.501443337639856"/>
  <flow id="JF110" begin="720" fromJunction="J4" toJunction="J3" end="780" vehsPerHour="39.08327011753035"/>
  <flow id="JF111" begin="780" fromJunction="J2" toJunction="J0" end="840" vehsPerHour="121.51533076976052"/>
  <flow id="JF112" begin="780" fromJunction="J2" toJunction="J3" end="840" vehsPerHour="82.36318501203733"/>
  <flow id="JF113" begin="780" fromJunction="J2" toJunction="J4" end="840" vehsPerHour="124.64238233587756"/>
  <flow id="JF114" begin="780" fromJunction="J3" toJunction="J2" end="840" vehsPerHour="33.00914235708393"/>
  <flow id="JF115" begin="780" fromJunction="J3" toJunction="J4" end="840" vehsPerHour="18.889205943817174"/>
  <flow id="JF116" begin="780" fromJunction="J4" toJunction="J2" end="840" vehsPerHour="88.63238651876316"/>
  <flow id="JF117" begin="780" fromJunction="J4" toJunction="J3" end="840" vehsPerHour="4.5669063107020635"/>
  <flow id="JF118" begin="840" fromJunction="J0" toJunction="J2" end="900" vehsPerHour="111.5019612455956"/>
  <flow id="JF119" begin="840" fromJunction="J0" toJunction="J3" end="900" vehsPerHour="75.954977626328"/>
  <flow id="JF120" begin="840" fromJunction="J2" toJunction="J0" end="900" vehsPerHour="21.891272010626352"/>
  <flow id="JF121" begin="840" fromJunction="J2" toJunction="J3" end="900" vehsPerHour="70.20458325658873"/>
  <flow id="JF122" begin="840" fromJunction="J2" toJunction="J4" end="900" vehsPerHour="82.0359527466804"/>
  <flow id="JF123" begin="840" fromJunction="J3" toJunction="J0" end="900" vehsPerHour="89.8289367273396"/>
  <flow id="JF124" begin="840" fromJunction="J3" toJunction="J2" end="900" vehsPerHour="47.180405023146214"/>
  <flow id="JF125" begin="840" fromJunction="J3" toJunction="J4" end="900" vehsPerHour="116.05478654432044"/>
  <flow id="JF126" begin="840" fromJunction="J4" toJunction="J3" end="900" vehsPerHour="107.19742324669488"/>
  <flow id="JF127" begin="900" fromJunction="J0" toJunction="J2" end="960" vehsPerHour="99.27730115807746"/>
  <flow id="JF128" begin="900" fromJunction="J0" toJunction="J3" end="960" vehsPerHour="7.5624108027707555"/>
  <flow id="JF129" begin="900" fromJunction="J0" toJunction="J4" end="960" vehsPerHour="32.752659531212515"/>
  <flow id="JF130" begin="900" fromJunction="J2" toJunction="J0" end="960" vehsPerHour="85.29381919083923"/>
  <flow id="JF131" begin="900" fromJunction="J2" toJunction="J4" end="960" vehsPerHour="62.95688314882381"/>
  <flow id="JF132" begin="900" fromJunction="J3" toJunction="J0" end="960" vehsPerHour="77.36293390159439"/>
  <flow id="JF133" begin="900" fromJunction="J4" toJunction="J0" end="960" vehsPerHour="59.50829812904471"/>
  <flow id="JF134" begin="900" fromJunction="J4" toJunction="J2" end="960" vehsPerHour="9.070002697523044"/>
  <flow id="JF135" begin="900" fromJunction="J4" toJunction="J3" end="960" vehsPerHour="20.942103811809112"/>
  <flow id="JF136" begin="960" fromJunction="J0" toJunction="J2" end="1020" vehsPerHour="5.771087518698089"/>
  <flow id="JF137" begin="960" fromJunction="J0" toJunction="J4" end="1020" vehsPerHour="111.06529709154448"/>
  <flow id="JF138" begin="960" fromJunction="J2" toJunction="J3" end="1020" vehsPerHour="109.79695640401839"/>
  <flow id="JF139" begin="960" fromJunction="J3" toJunction="J2" end="1020" vehsPerHour="67.26150423581535"/>
  <flow id="JF140" begin="960" fromJunction="J3" toJunction="J4" end="1020" vehsPerHour="128.11568914251808"/>
  <flow id="JF141" begin="960" fromJunction="J4" toJunction="J0" end="1020" vehsPerHour="135.13914185120774"/>
  <flow id="JF142" begin="960" fromJunction="J4" toJunction="J2" end="1020" vehsPerHour="10.973023073352017"/>
  <flow id="JF143" begin="960" fromJunction="J4" toJunction="J3" end="1020" vehsPerHour="21.150541544159566"/>
  <flow id="JF144" begin="1020" fromJunction="J2" toJunction="J0" end="1080" vehsPerHour="56.64296527126598"/>
  <flow id="JF145" begin="1020" fromJunction="J2" toJunction="J3" end="1080" vehsPerHour="102.34007889253832"/>
  <flow id="JF146" begin="1020" fromJunction="J2" toJunction="J4" end="1080" vehsPerHour="126.38849402785283"/>
  <flow id="JF147" begin="1020" fromJunction="J3" toJunction="J2" end="1080" vehsPerHour="86.95215596964051"/>
  <flow id="JF148" begin="1020" fromJunction="J3" toJunction="J4" end="1080" vehsPerHour="42.374361509075094"/>
  <flow id="JF149" begin="1020" fromJunction="J4" toJunction="J0" end="1080" vehsPerHour="22.90505424210289"/>
  <flow id="JF150" begin="1020" fromJunction="J4" toJunction="J2" end="1080" vehsPerHour="78.70093056346481"/>
  <flow id="JF151" begin="1080" fromJunction="J0" toJunction="J4" end="1140" vehsPerHour="22.8239354175054"/>
  <flow id="JF152" begin="1080" fromJunction="J2" toJunction="J0" end="1140" vehsPerHour="76.46016478677822"/>
  <flow id="JF153" begin="1080" fromJunction="J2" toJunction="J3" end="1140" vehsPerHour="110.24070424841015"/>
  <flow id="JF154" begin="1080" fromJunction="J2" toJunction="J4" end="1140" vehsPerHour="82.60571202379643"/>
  <flow id="JF155" begin="1080" fromJunction="J3" toJunction="J0" end="1140" vehsPerHour="63.37555678051946"/>
  <flow id="JF156" begin="1080" fromJunction="J3" toJunction="J2" end="1140" vehsPerHour="76.03930825507142"/>
  <flow id="JF157" begin="1080" fromJunction="J3" toJunction="J4" end="1140" vehsPerHour="117.39052628692447"/>
  <flow id="JF158" begin="1080" fromJunction="J4" toJunction="J0" end="1140" vehsPerHour="124.46845050751693"/>
  <flow id="JF159" begin="1140" fromJunction="J0" toJunction="J3" end="1200" vehsPerHour="42.10073658111751"/>
  <flow id="JF160" begin="1140" fromJunction="J0" toJunction="J4" end="1200" vehsPerHour="43.440573285521204"/>
  <flow id="JF161" begin="1140" fromJunction="J3" toJunction="J0" end="1200" vehsPerHour="117.39090665312457"/>
  <flow id="JF162" begin="1140" fromJunction="J3" toJunction="J2" end="1200" vehsPerHour="47.476078800275964"/>
  <flow id="JF163" begin="1140" fromJunction="J3" toJunction="J4" end="1200" vehsPerHour="57.65188320272861"/>
  <flow id="JF164" begin="1140" fromJunction="J4" toJunction="J0" end="1200" vehsPerHour="119.04056394291791"/>
  <flow id="JF165" begin="1140" fromJunction="J4" toJunction="J2" end="1200" vehsPerHour="115.09907906278048"/>
  <flow id="JF166" begin="1140" fromJunction="J4" toJunction="J3" end="1200" vehsPerHour="49.8930069545153"/>
  <flow id="JF167" begin="1200" fromJunction="J0" toJunction="J2" end="1260" vehsPerHour="131.55738724073186"/>
  <flow id="JF168" begin="1200" fromJunction="J0" toJunction="J3" end="1260" vehsPerHour="32.90935053006265"/>
  <flow id="JF169" begin="1200" fromJunction="J2" toJunction="J0" end="1260" vehsPerHour="12.901397280334592"/>
  <flow id="JF170" begin="1200" fromJunction="J3" toJunction="J0" end="1260" vehsPerHour="100.48617900697577"/>
  <flow id="JF171" begin="1200" fromJunction="J3" toJunction="J2" end="1260" vehsPerHour="77.06236633452788"/>
  <flow id="JF172" begin="1200" fromJunction="J3" toJunction="J4" end="1260" vehsPerHour="16.97090594782364"/>
  <flow id="JF173" begin="1200" fromJunction="J4" toJunction="J0" end="1260" vehsPerHour="76.09847515141954"/>
  <flow id="JF174" begin="1200" fromJunction="J4" toJunction="J2" end="1260" vehsPerHour="51.696493263439336"/>
  <flow id="JF175" begin="1200" fromJunction="J4" toJunction="J3" end="1260" vehsPerHour="34.772549756967926"/>
  <flow id="JF176" begin="1260" fromJunction="J0" toJunction="J2" end="1320" vehsPerHour="91.05343301352015"/>
  <flow id="JF177" begin="1260" fromJunction="J0" toJunction="J3" end="1320" vehsPerHour="128.5276666079521"/>
  <flow id="JF178" begin="1260" fromJunction="J0" toJunction="J4" end="1320" vehsPerHour="134.1113036933876"/>
  <flow id="JF179" begin="1260" fromJunction="J2" toJunction="J0" end="1320" vehsPerHour="23.067298498309018"/>
  <flow id="JF180" begin="1260" fromJunction="J2" toJunction="J3" end="1320" vehsPerHour="115.64218135812379"/>
  <flow id="JF181" begin="1260" fromJunction="J3" toJunction="J0" end="1320" vehsPerHour="133.67867825387592"/>
  <flow id="JF182" begin="1260" fromJunction="J3" toJunction="J2" end="1320" vehsPerHour="13.156463749314652"/>
  <flow id="JF183" begin="1260" fromJunction="J3" toJunction="J4" end="1320" vehsPerHour="127.22734627462032"/>
  <flow id="JF184" begin="1260" fromJunction="J4" toJunction="J0" end="1320" vehsPerHour="63.94780189030325"/>
  <flow id="JF185" begin="1260" fromJunction="J4" toJunction="J2" end="1320" vehsPerHour="105.52916993795526"/>
  <flow id="JF186" begin="1260" fromJunction="J4" toJunction="J3" end="1320" vehsPerHour="32.106517048865065"/>
  <flow id="JF187" begin="1320" fromJunction="J0" toJunction="J2" end="1380" vehsPerHour="77.65413501384758"/>
  <flow id="JF188" begin="1320" fromJunction="J0" toJunction="J4" end="1380" vehsPerHour="71.38240070417129"/>
  <flow id="JF189" begin="1320" fromJunction="J2" toJunction="J0" end="1380" vehsPerHour="87.8578355673776"/>
  <flow id="JF190" begin="1320" fromJunction="J3" toJunction="J0" end="1380" vehsPerHour="122.54248402084465"/>
  <flow id="JF191" begin="1320" fromJunction="J3" toJunction="J2" end="1380" vehsPerHour="14.69229779339479"/>
  <flow id="JF192" begin="1320" fromJunction="J3" toJunction="J4" end="1380" vehsPerHour="8.436750860911749"/>
  <flow id="JF193" begin="1320" fromJunction="J4" toJunction="J0" end="1380" vehsPerHour="68.94543758922686"/>
  <flow id="JF194" begin="1320" fromJunction="J4" toJunction="J2" end="1380" vehsPerHour="64.38426928941473"/>
  <flow id="JF195" begin="1380" fromJunction="J0" toJunction="J2" end="1440" vehsPerHour="125.29897825566337"/>
  <flow id="JF196" begin="1380" fromJunction="J0" toJunction="J3" end="1440" vehsPerHour="78.27362826216665"/>
  <flow id="JF197" begin="1380" fromJunction="J2" toJunction="J0" end="1440" vehsPerHour="19.61578279900525"/>
  <flow id="JF198" begin="1380" fromJunction="J2" toJunction="J3" end="1440" vehsPerHour="125.5286612200039"/>
  <flow id="JF199" begin="1380" fromJunction="J2" toJunction="J4" end="1440" vehsPerHour="89.02580327885101"/>
  <flow id="JF200" begin="1380" fromJunction="J3" toJunction="J0" end="1440" vehsPerHour="129.38601077853798"/>
  <flow id="JF201" begin="1380" fromJunction="J3" toJunction="J2" end="1440" vehsPerHour="125.14188578066768"/>
  <flow id="JF202" begin="1380" fromJunction="J3" toJunction="J4" end="1440" vehsPerHour="26.152999768164584"/>
  <flow id="JF203" begin="1380" fromJunction="J4" toJunction="J0" end="1440" vehsPerHour="17.099547767309186"/>
  <flow id="JF204" begin="1380" fromJunction="J4" toJunction="J2" end="1440" vehsPerHour="43.51517955704199"/>
  <flow id="JF205" begin="1380" fromJunction="J4" toJunction="J3" end="1440" vehsPerHour="76.2163151633975"/>
  <flow id="JF206" begin="1440" fromJunction="J0" toJunction="J3" end="1500" vehsPerHour="135.63575186860106"/>
  <flow id="JF207" begin="1440" fromJunction="J0" toJunction="J4" end="1500" vehsPerHour="71.77761319437269"/>
  <flow id="JF208" begin="1440" fromJunction="J2" toJunction="J0" end="1500" vehsPerHour="66.7177514421003"/>
  <flow id="JF209" begin="1440" fromJunction="J2" toJunction="J3" end="1500" vehsPerHour="44.78052466461145"/>
  <flow id="JF210" begin="1440" fromJunction="J2" toJunction="J4" end="1500" vehsPerHour="82.70520503402516"/>
  <flow id="JF211" begin="1440" fromJunction="J3" toJunction="J0" end="1500" vehsPerHour="40.22322428691274"/>
  <flow id="JF212" begin="1440" fromJunction="J3" toJunction="J2" end="1500" vehsPerHour="98.78730209092107"/>
  <flow id="JF213" begin="1440" fromJunction="J4" toJunction="J0" end="1500" vehsPerHour="94.15824848682294"/>
  <flow id="JF214" begin="1440" fromJunction="J4" toJunction="J2" end="1500" vehsPerHour="103.68054404113072"/>
  <flow id="JF215" begin="1440" fromJunction="J4" toJunction="J3" end="1500" vehsPerHour="14.319825712193767"/>
  <flow id="JF216" begin="1500" fromJunction="J0" toJunction="J3" end="1560" vehsPerHour="49.12797600842964"/>
  <flow id="JF217" begin="1500" fromJunction="J0" toJunction="J4" end="1560" vehsPerHour="54.77824534271748"/>
  <flow id="JF218" begin="1500" fromJunction="J2" toJunction="J0" end="1560" vehsPerHour="75.14291192768424"/>
  <flow id="JF219" begin="1500" fromJunction="J3" toJunction="J0" end="1560" vehsPerHour="80.63451001026795"/>
  <flow id="JF220" begin="1500" fromJunction="J3" toJunction="J2" end="1560" vehsPerHour="25.172670433390863"/>
  <flow id="JF221" begin="1500" fromJunction="J4" toJunction="J0" end="1560" vehsPerHour="124.72130209925366"/>
  <flow id="JF222" begin="1500" fromJunction="J4" toJunction="J3" end="1560" vehsPerHour="125.21617098100383"/>
  <flow id="JF223" begin="1560" fromJunction="J0" toJunction="J2" end="1620" vehsPerHour="70.20535150145014"/>
  <flow id="JF224" begin="1560" fromJunction="J0" toJunction="J4" end="1620" vehsPerHour="123.38897118765635"/>
  <flow id="JF225" begin="1560" fromJunction="J2" toJunction="J0" end="1620" vehsPerHour="127.81893598374394"/>
  <flow id="JF226" begin="1560" fromJunction="J2" toJunction="J3" end="1620" vehsPerHour="68.5768309111314"/>
  <flow id="JF227" begin="1560" fromJunction="J3" toJunction="J0" end="1620" vehsPerHour="91.82568808265349"/>
  <flow id="JF228" begin="1560" fromJunction="J3" toJunction="J4" end="1620" vehsPerHour="24.33295106466962"/>
  <flow id="JF229" begin="1560" fromJunction="J4" toJunction="J2" end="1620" vehsPerHour="4.056114324343378"/>
  <flow id="JF230" begin="1560" fromJunction="J4" toJunction="J3" end="1620" vehsPerHour="45.41393167789104"/>
  <flow id="JF231" begin="1620" fromJunction="J0" toJunction="J2" end="1680" vehsPerHour="124.09134597706912"/>
  <flow id="JF232" begin="1620" fromJunction="J0" toJunction="J3" end="1680" vehsPerHour="21.03828599895471"/>
  <flow id="JF233" begin="1620" fromJunction="J0" toJunction="J4" end="1680" vehsPerHour="3.17189633423094"/>
  <flow id="JF234" begin="1620" fromJunction="J2" toJunction="J3" end="1680" vehsPerHour="80.69807936619524"/>
  <flow id="JF235" begin="1620" fromJunction="J3" toJunction="J0" end="1680" vehsPerHour="9.839935396662051"/>
  <flow id="JF236" begin="1620" fromJunction="J3" toJunction="J2" end="1680" vehsPerHour="78.63224744850756"/>
  <flow id="JF237" begin="1620" fromJunction="J3" toJunction="J4" end="1680" vehsPerHour="132.6181189972438"/>
  <flow id="JF238" begin="1620" fromJunction="J4" toJunction="J0" end="1680" vehsPerHour="97.45412133631083"/>
  <flow id="JF239" begin="1620" fromJunction="J4" toJunction="J2" end="1680" vehsPerHour="58.069153469405556"/>
  <flow id="JF240" begin="1680" fromJunction="J0" toJunction="J2" end="1740" vehsPerHour="105.96874890518174"/>
  <flow id="JF241" begin="1680" fromJunction="J0" toJunction="J4" end="1740" vehsPerHour="11.1813473402168"/>
  <flow id="JF242" begin="1680" fromJunction="J2" toJunction="J0" end="1740" vehsPerHour="23.300515737095843"/>
  <flow id="JF243" begin="1680" fromJunction="J2" toJunction="J3" end="1740" vehsPerHour="90.90029992195367"/>
  <flow id="JF244" begin="1680" fromJunction="J2" toJunction="J4" end="1740" vehsPerHour="74.47514773088665"/>
  <flow id="JF245" begin="1680" fromJunction="J3" toJunction="J0" end="1740" vehsPerHour="76.67942031577735"/>
  <flow id="JF246" begin="1680" fromJunction="J3" toJunction="J2" end="1740" vehsPerHour="2.949011036850998"/>
  <flow id="JF247" begin="1680" fromJunction="J3" toJunction="J4" end="1740" vehsPerHour="50.5130290829424"/>
  <flow id="JF248" begin="1680" fromJunction="J4" toJunction="J2" end="1740" vehsPerHour="26.851849444344072"/>
  <flow id="JF249" begin="1680" fromJunction="J4" toJunction="J3" end="1740" vehsPerHour="12.430530001522083"/>
  <flow id="JF250" begin="1740" fromJunction="J0" toJunction="J2" end="1800" vehsPerHour="114.1512566191287"/>
  <flow id="JF251" begin="1740" fromJunction="J0" toJunction="J4" end="1800" vehsPerHour="122.22178435044361"/>
  <flow id="JF252" begin="1740" fromJunction="J2" toJunction="J3" end="1800" vehsPerHour="94.33341023022359"/>
  <flow id="JF253" begin="1740" fromJunction="J2" toJunction="J4" end="1800" vehsPerHour="119.02114099106898"/>
  <flow id="JF254" begin="1740" fromJunction="J3" toJunction="J0" end="1800" vehsPerHour="24.4802587590814"/>
  <flow id="JF255" begin="1740" fromJunction="J3" toJunction="J2" end="1800" vehsPerHour="88.75272211640987"/>
  <flow id="JF256" begin="1740" fromJunction="J3" toJunction="J4" end="1800" vehsPerHour="49.75117913158544"/>
  <flow id="JF257" begin="1740" fromJunction="J4" toJunction="J0" end="1800" vehsPerHour="55.95391158576345"/>
  <flow id="JF258" begin="1740" fromJunction="J4" toJunction="J3" end="1800" vehsPerHour="10.457031502205266"/>
  <flow id="JF259" begin="1800" fromJunction="J0" toJunction="J3" end="1860" vehsPerHour="58.744361003577175"/>
  <flow id="JF260" begin="1800" fromJunction="J0" toJunction="J4" end="1860" vehsPerHour="46.69588308937757"/>
  <flow id="JF261" begin="1800" fromJunction="J2" toJunction="J0" end="1860" vehsPerHour="5.417621178652509"/>
  <flow id="JF262" begin="1800" fromJunction="J2" toJunction="J3" end="1860" vehsPerHour="126.39967227212331"/>
  <flow id="JF263" begin="1800" fromJunction="J2" toJunction="J4" end="1860" vehsPerHour="64.5815740788194"/>
  <flow id="JF264" begin="1800" fromJunction="J3" toJunction="J2" end="1860" vehsPerHour="29.834833249095382"/>
  <flow id="JF265" begin="1800" fromJunction="J3" toJunction="J4" end="1860" vehsPerHour="26.32191564843254"/>
  <flow id="JF266" begin="1800" fromJunction="J4" toJunction="J0" end="1860" vehsPerHour="40.954242487917206"/>
  <flow id="JF267" begin="1800" fromJunction="J4" toJunction="J2" end="1860" vehsPerHour="8.524195886714761"/>
  <flow id="JF268" begin="1860" fromJunction="J0" toJunction="J2" end="1920" vehsPerHour="35.690318562131566"/>
  <flow id="JF269" begin="1860" fromJunction="J0" toJunction="J3" end="1920" vehsPerHour="42.47540201524884"/>
  <flow id="JF270" begin="1860" fromJunction="J0" toJunction="J4" end="1920" vehsPerHour="65.84432527367929"/>