<?xml version="1.0" encoding="UTF-8"?>
<routes xmlns:xsi="http://www.w3.org/2001/XMLSchema-instance" xsi:noNamespaceSchemaLocation="http://sumo.dlr.de/xsd/routes_file.xsd">
  <flow id="JF9748" begin="0" fromJunction="J0" toJunction="J2" end="60" vehsPerHour="94.35358368854762"/>
  <flow id="JF9749" begin="0" fromJunction="J0" toJunction="J4" end="60" vehsPerHour="42.77444454256167"/>
  <flow id="JF9750" begin="0" fromJunction="J2" toJunction="J0" end="60" vehsPerHour="78.51576896311153"/>
  <flow id="JF9751" begin="0" fromJunction="J2" toJunction="J3" end="60" vehsPerHour="117.18883578031352"/>
  <flow id="JF9752" begin="0" fromJunction="J3" toJunction="J0" end="60" vehsPerHour="91.8106837518439"/>
  <flow id="JF9753" begin="0" fromJunction="J3" toJunction="J2" end="60" vehsPerHour="65.34418919719207"/>
  <flow id="JF9754" begin="0" fromJunction="J3" toJunction="J4" end="60" vehsPerHour="104.6381535009049"/>
  <flow id="JF9755" begin="0" fromJunction="J4" toJunction="J0" end="60" vehsPerHour="107.23783269721136"/>
  <flow id="JF9756" begin="0" fromJunction="J4" toJunction="J2" end="60" vehsPerHour="104.42895594788413"/>
  <flow id="JF9757" begin="0" fromJunction="J4" toJunction="J3" end="60" vehsPerHour="30.35989446072253"/>
  <flow id="JF9758" begin="60" fromJunction="J0" toJunction="J2" end="120" vehsPerHour="20.463909367195466"/>
  <flow id="JF9759" begin="60" fromJunction="J0" toJunction="J3" end="120" vehsPerHour="91.00999996513347"/>
  <flow id="JF9760" begin="60" fromJunction="J0" toJunction="J4" end="120" vehsPerHour="46.677399507053686"/>
  <flow id="JF9761" begin="60" fromJunction="J2" toJunction="J3" end="120" vehsPerHour="108.83637007290349"/>
  <flow id="JF9762" begin="60" fromJunction="J2" toJunction="J4" end="120" vehsPerHour="130.18971050508006"/>
  <flow id="JF9763" begin="60" fromJunction="J3" toJunction="J0" end="120" vehsPerHour="62.07821913782079"/>
  <flow id="JF9764" begin="60" fromJunction="J4" toJunction="J2" end="120" vehsPerHour="18.508977161448566"/>
  <flow id="JF9765" begin="120" fromJunction="J0" toJunction="J2" end="180" vehsPerHour="24.756246999785304"/>
  <flow id="JF9766" begin="120" fromJunction="J0" toJunction="J3" end="180" vehsPerHour="15.522743482226515"/>
  <flow id="JF9767" begin="120" fromJunction="J0" toJunction="J4" end="180" vehsPerHour="118.54769261660302"/>
  <flow id="JF9768" begin="120" fromJunction="J2" toJunction="J0" end="180" vehsPerHour="106.76143537490414"/>
  <flow id="JF9769" begin="120" fromJunction="J2" toJunction="J4" end="180" vehsPerHour="45.6504673542105"/>
  <flow id="JF9770" begin="120" fromJunction="J3" toJunction="J0" end="180" vehsPerHour="9.152954982370636"/>
  <flow id="JF9771" begin="120" fromJunction="J3" toJunction="J2" end="180" vehsPerHour="125.61618439001654"/>
  <flow id="JF9772" begin="120" fromJunction="J3" toJunction="J4" end="180" vehsPerHour="78.46537406765034"/>
  <flow id="JF9773" begin="120" fromJunction="J4" toJunction="J0" end="180" vehsPerHour="113.42197474056077"/>
  <flow id="JF9774" begin="120" fromJunction="J4" toJunction="J2" end="180" vehsPerHour="12.536852751468016"/>
  <flow id="JF9775" begin="120" fromJunction="J4" toJunction="J3" end="180" vehsPerHour="78.77040847572191"/>
  <flow id="JF9776" begin="180" fromJunction="J0" toJunction="J2" end="240" vehsPerHour="99.41982367631358"/>
  <flow id="JF9777" begin="180" fromJunction="J0" toJunction="J3" end="240" vehsPerHour="85.75132636350304"/>
  <flow id="JF9778" begin="180" fromJunction="J0" toJunction="J4" end="240" vehsPerHour="21.13052111633169"/>
  <flow id="JF9779" begin="180" fromJunction="J2" toJunction="J0" end="240" vehsPerHour="10.037763573189206"/>
  <flow id="JF9780" begin="180" fromJunction="J2" toJunction="J3" end="240" vehsPerHour="99.25588957325857"/>
  <flow id="JF9781" begin="180" fromJunction="J2" toJunction="J4" end="240" vehsPerHour="98.79905629925003"/>
  <flow id="JF9782" begin="180" fromJunction="J3" toJunction="J4" end="240" vehsPerHour="131.5685704030634"/>
  <flow id="JF9783" begin="180" fromJunction="J4" toJunction="J2" end="240" vehsPerHour="115.27414790894049"/>
  <flow id="JF9784" begin="240" fromJunction="J0" toJunction="J2" end="300" vehsPerHour="79.63926632263788"/>
  <flow id="JF9785" begin="240" fromJunction="J0" toJunction="J3" end="300" vehsPerHour="87.51298817770316"/>
  <flow id="JF9786" begin="240" fromJunction="J0" toJunction="J4" end="300" vehsPerHour="49.896059407371844"/>
  <flow id="JF9787" begin="240" fromJunction="J2" toJunction="J0" end="300" vehsPerHour="122.84197680088808"/>
  <flow id="JF9788" begin="240" fromJunction="J3" toJunction="J0" end="300" vehsPerHour="128.7861892575426"/>
  <flow id="JF9789" begin="240" fromJunction="J3" toJunction="J4" end="300" vehsPerHour="115.20028785758032"/>
  <flow id="JF9790" begin="240" fromJunction="J4" toJunction="J0" end="300" vehsPerHour="82.7241158858363"/>
  <flow id="JF9791" begin="240" fromJunction="J4" toJunction="J2" end="300" vehsPerHour="26.386358191545682"/>
  <flow id="JF9792" begin="240" fromJunction="J4" toJunction="J3" end="300" vehsPerHour="24.60644083741637"/>
  <flow id="JF9793" begin="300" fromJunction="J0" toJunction="J2" end="360" vehsPerHour="81.91815562665944"/>
  <flow id="JF9794" begin="300" fromJunction="J0" toJunction="J3" end="360" vehsPerHour="97.23473334589949"/>
  <flow id="JF9795" begin="300" fromJunction="J0" toJunction="J4" end="360" vehsPerHour="95.92510062380236"/>
  <flow id="JF9796" begin="300" fromJunction="J2" toJunction="J0" end="360" vehsPerHour="76.89386238984055"/>
  <flow id="JF9797" begin="300" fromJunction="J2" toJunction="J4" end="360" vehsPerHour="67.28031132085125"/>
  <flow id="JF9798" begin="300" fromJunction="J3" toJunction="J4" end="360" vehsPerHour="131.03753741171053"/>
  <flow id="JF9799" begin="300" fromJunction="J4" toJunction="J0" end="360" vehsPerHour="61.6793618747898"/>
  <flow id="JF9800" begin="300" fromJunction="J4" toJunction="J3" end="360" vehsPerHour="100.3976780620949"/>
  <flow id="JF9801" begin="360" fromJunction="J0" toJunction="J2" end="420" vehsPerHour="136.5779028685109"/>
  <flow id="JF9802" begin="360" fromJunction="J0" toJunction="J3" end="420" vehsPerHour="34.883923904454676"/>
  <flow id="JF9803" begin="360" fromJunction="J2" toJunction="J0" end="420" vehsPerHour="131.0281589752231"/>
  <flow id="JF9804" begin="360" fromJunction="J2" toJunction="J4" end="420" vehsPerHour="5.172411413481152"/>
  <flow id="JF9805" begin="360" fromJunction="J3" toJunction="J0" end="420" vehsPerHour="78.02971823690936"/>
  <flow id="JF9806" begin="360" fromJunction="J3" toJunction="J2" end="420" vehsPerHour="75.127452339127"/>
  <flow id="JF9807" begin="360" fromJunction="J3" toJunction="J4" end="420" vehsPerHour="94.39796991455208"/>
  <flow id="JF9808" begin="360" fromJunction="J4" toJunction="J0" end="420" vehsPerHour="130.1850395303734"/>
  <flow id="JF9809" begin="360" fromJunction="J4" toJunction="J2" end="420" vehsPerHour="40.51559743622019"/>
  <flow id="JF9810" begin="360" fromJunction="J4" toJunction="J3" end="420" vehsPerHour="113.73996157308845"/>
  <flow id="JF9811" begin="420" fromJunction="J0" toJunction="J3" end="480" vehsPerHour="130.1751161881205"/>
  <flow id="JF9812" begin="420" fromJunction="J2" toJunction="J0" end="480" vehsPerHour="42.07867947380714"/>
  <flow id="JF9813" begin="420" fromJunction="J2" toJunction="J4" end="480" vehsPerHour="53.502079957700325"/>
  <flow id="JF9814" begin="420" fromJunction="J3" toJunction="J2" end="480" vehsPerHour="17.990759588752457"/>
  <flow id="JF9815" begin="420" fromJunction="J3" toJunction="J4" end="480" vehsPerHour="126.22648337381592"/>
  <flow id="JF9816" begin="420" fromJunction="J4" toJunction="J0" end="480" vehsPerHour="124.04312310632449"/>
  <flow id="JF9817" begin="420" fromJunction="J4" toJunction="J3" end="480" vehsPerHour="121.67261765362011"/>
  <flow id="JF9818" begin="480" fromJunction="J0" toJunction="J3" end="540" vehsPerHour="27.184767656294174"/>
  <flow id="JF9819" begin="480" fromJunction="J0" toJunction="J4" end="540" vehsPerHour="48.465424557813286"/>
  <flow id="JF9820" begin="480" fromJunction="J2" toJunction="J0" end="540" vehsPerHour="101.35884059117078"/>
  <flow id="JF9821" begin="480" fromJunction="J3" toJunction="J0" end="540" vehsPerHour="113.57426417277624"/>
  <flow id="JF9822" begin="480" fromJunction="J3" toJunction="J2" end="540" vehsPerHour="126.5792870436387"/>
  <flow id="JF9823" begin="480" fromJunction="J3" toJunction="J4" end="540" vehsPerHour="119.77137182299046"/>
  <flow id="JF9824" begin="480" fromJunction="J4" toJunction="J0" end="540" vehsPerHour="42.629307187660785"/>
  <flow id="JF9825" begin="480" fromJunction="J4" toJunction="J2" end="540" vehsPerHour="50.15707564384248"/>
  <flow id="JF9826" begin="480" fromJunction="J4" toJunction="J3" end="540" vehsPerHour="87.58252002462616"/>
  <flow id="JF9827" begin="540" fromJunction="J0" toJunction="J2" end="600" vehsPerHour="41.41066056610269"/>
  <flow id="JF9828" begin="540" fromJunction="J0" toJunction="J3" end="600" vehsPerHour="135.8281187799242"/>
  <flow id="JF9829" begin="540" fromJunction="J0" toJunction="J4" end="600" vehsPerHour="39.651514223871764"/>
  <flow id="JF9830" begin="540" fromJunction="J2" toJunction="J0" end="600" vehsPerHour="98.59155783776707"/>
  <flow id="JF9831" begin="540" fromJunction="J2" toJunction="J4" end="600" vehsPerHour="35.55587329389142"/>
  <flow id="JF9832" begin="540" fromJunction="J3" toJunction="J0" end="600" vehsPerHour="76.09525172181218"/>
  <flow id="JF9833" begin="540" fromJunction="J4" toJunction="J0" end="600" vehsPerHour="28.360791938712378"/>
  <flow id="JF9834" begin="540" fromJunction="J4" toJunction="J2" end="600" vehsPerHour="60.228297760443894"/>
  <flow id="JF9835" begin="540" fromJunction="J4" toJunction="J3" end="600" vehsPerHour="46.50370445438655"/>
  <flow id="JF9836" begin="600" fromJunction="J0" toJunction="J2" end="660" vehsPerHour="93.15900722769689"/>
  <flow id="JF9837" begin="600" fromJunction="J0" toJunction="J4" end="660" vehsPerHour="77.28369236653964"/>
  <flow id="JF9838" begin="600" fromJunction="J2" toJunction="J0" end="660" vehsPerHour="51.09793291424068"/>
  <flow id="JF9839" begin="600" fromJunction="J2" toJunction="J3" end="660" vehsPerHour="107.30442869999996"/>
  <flow id="JF9840" begin="600" fromJunction="J2" toJunction="J4" end="660" vehsPerHour="60.256498971055"/>
  <flow id="JF9841" begin="600" fromJunction="J3" toJunction="J0" end="660" vehsPerHour="103.09535740620643"/>
  <flow id="JF9842" begin="600" fromJunction="J3" toJunction="J2" end="660" vehsPerHour="54.6513675345171"/>
  <flow id="JF9843" begin="600" fromJunction="J3" toJunction="J4" end="660" vehsPerHour="78.3360589315538"/>
  <flow id="JF9844" begin="600" fromJunction="J4" toJunction="J0" end="660" vehsPerHour="117.60980455926247"/>
  <flow id="JF9845" begin="600" fromJunction="J4" toJunction="J2" end="660" vehsPerHour="113.56270771341785"/>
  <flow id="JF9846" begin="600" fromJunction="J4" toJunction="J3" end="660" vehsPerHour="10.315242513091338"/>
  <flow id="JF9847" begin="660" fromJunction="J0" toJunction="J3" end="720" vehsPerHour="101.93110659457366"/>
  <flow id="JF9848" begin="660" fromJunction="J0" toJunction="J4" end="720" vehsPerHour="67.13900401034807"/>
  <flow id="JF9849" begin="660" fromJunction="J2" toJunction="J3" end="720" vehsPerHour="117.08962604130235"/>
  <flow id="JF9850" begin="660" fromJunction="J2" toJunction="J4" end="720" vehsPerHour="99.76603207919193"/>
  <flow id="JF9851" begin="660" fromJunction="J3" toJunction="J0" end="720" vehsPerHour="105.651059679199"/>
  <flow id="JF9852" begin="660" fromJunction="J3" toJunction="J2" end="720" vehsPerHour="122.36167599497261"/>
  <flow id="JF9853" begin="660" fromJunction="J3" toJunction="J4" end="720" vehsPerHour="104.60088494888561"/>
  <flow id="JF9854" begin="660" fromJunction="J4" toJunction="J0" end="720" vehsPerHour="123.96499309900479"/>
  <flow id="JF9855" begin="660" fromJunction="J4" toJunction="J2" end="720" vehsPerHour="119.75396491506487"/>
  <flow id="JF9856" begin="660" fromJunction="J4" toJunction="J3" end="720" vehsPerHour="38.812164037089815"/>
  <flow id="JF9857" begin="720" fromJunction="J0" toJunction="J3" end="780" vehsPerHour="15.828190784997453"/>
  <flow id="JF9858" begin="720" fromJunction="J0" toJunction="J4" end="780" vehsPerHour="84.68327206292489"/>
  <flow id="JF9859" begin="720" fromJunction="J2" toJunction="J0" end="780" vehsPerHour="36.59427715109159"/>
  <flow id="JF9860" begin="720" fromJunction="J2" toJunction="J4" end="780" vehsPerHour="15.165203284313725"/>
  <flow id="JF9861" begin="720" fromJunction="J3" toJunction="J0" end="780" vehsPerHour="119.01402062393616"/>
  <flow id="JF9862" begin="720" fromJunction="J3" toJunction="J2" end="780" vehsPerHour="104.61249264301749"/>
  <flow id="JF9863" begin="720" fromJunction="J3" toJunction="J4" end="780" vehsPerHour="9.956439333318126"/>
  <flow id="JF9864" begin="720" fromJunction="J4" toJunction="J0" end="780" vehsPerHour="98.04800588055265"/>
  <flow id="JF9865" begin="720" fromJunction="J4" toJunction="J3" end="780" vehsPerHour="118.67540382155076"/>
  <flow id="JF9866" begin="780" fromJunction="J0" toJunction="J2" end="840" vehsPerHour="23.895150667983405"/>
  <flow id="JF9867" begin="780" fromJunction="J0" toJunction="J3" end="840" vehsPerHour="41.01996769333336"/>
  <flow id="JF9868" begin="780" fromJunction="J2" toJunction="J0" end="840" vehsPerHour="80.9722455632496"/>
  <flow id="JF9869" begin="780" fromJunction="J2" toJunction="J3" end="840" vehsPerHour="128.35006550173716"/>
  <flow id="JF9870" begin="780" fromJunction="J2" toJunction="J4" end="840" vehsPerHour="82.87310902832257"/>
  <flow id="JF9871" begin="780" fromJunction="J3" toJunction="J0" end="840" vehsPerHour="70.47083220231981"/>
  <flow id="JF9872" begin="780" fromJunction="J3" toJunction="J2" end="840" vehsPerHour="130.51905335682187"/>
  <flow id="JF9873" begin="780" fromJunction="J3" toJunction="J4" end="840" vehsPerHour="66.86249578654443"/>
  <flow id="JF9874" begin="780" fromJunction="J4" toJunction="J0" end="840" vehsPerHour="12.890291403230343"/>
  <flow id="JF9875" begin="840" fromJunction="J0" toJunction="J2" end="900" vehsPerHour="60.69632891264373"/>
  <flow id="JF9876" begin="840" fromJunction="J0" toJunction="J3" end="900" vehsPerHour="42.007441984114074"/>
  <flow id="JF9877" begin="840" fromJunction="J2" toJunction="J0" end="900" vehsPerHour="69.86314106996481"/>
  <flow id="JF9878" begin="840" fromJunction="J2" toJunction="J4" end="900" vehsPerHour="6.18879167942104"/>
  <flow id="JF9879" begin="840" fromJunction="J3" toJunction="J2" end="900" vehsPerHour="16.746232507002993"/>
  <flow id="JF9880" begin="840" fromJunction="J4" toJunction="J2" end="900" vehsPerHour="137.341359303838"/>
  <flow id="JF9881" begin="840" fromJunction="J4" toJunction="J3" end="900" vehsPerHour="40.37772674312376"/>
  <flow id="JF9882" begin="900" fromJunction="J0" toJunction="J2" end="960" vehsPerHour="114.7195967729769"/>
  <flow id="JF9883" begin="900" fromJunction="J2" toJunction="J3" end="960" vehsPerHour="84.76782152725254"/>
  <flow id="JF9884" begin="900" fromJunction="J2" toJunction="J4" end="960" vehsPerHour="33.61584845294493"/>
  <flow id="JF9885" begin="900" fromJunction="J3" toJunction="J2" end="960" vehsPerHour="95.0883084848302"/>
  <flow id="JF9886" begin="900" fromJunction="J4" toJunction="J0" end="960" vehsPerHour="130.29517423455897"/>
  <flow id="JF9887" begin="900" fromJunction="J4" toJunction="J2" end="960" vehsPerHour="97.7610204526576"/>
  <flow id="JF9888" begin="960" fromJunction="J0" toJunction="J2" end="1020" vehsPerHour="6.212241726187841"/>
  <flow id="JF9889" begin="960" fromJunction="J0" toJunction="J3" end="1020" vehsPerHour="85.8537023768945"/>
  <flow id="JF9890" begin="960" fromJunction="J0" toJunction="J4" end="1020" vehsPerHour="21.869879303165334"/>
  <flow id="JF9891" begin="960" fromJunction="J2" toJunction="J3" end="1020" vehsPerHour="84.71632178038325"/>
  <flow id="JF9892" begin="960" fromJunction="J2" toJunction="J4" end="1020" vehsPerHour="57.668840398682924"/>
  <flow id="JF9893" begin="960" fromJunction="J3" toJunction="J0" end="1020" vehsPerHour="85.53401905531382"/>
  <flow id="JF9894" begin="960" fromJunction="J3" toJunction="J2" end="1020" vehsPerHour="105.96881775238202"/>
  <flow id="JF9895" begin="960" fromJunction="J3" toJunction="J4" end="1020" vehsPerHour="27.685754307706393"/>
  <flow id="JF9896" begin="960" fromJunction="J4" toJunction="J0" end="1020" vehsPerHour="17.755599472595495"/>
  <flow id="JF9897" begin="960" fromJunction="J4" toJunction="J2" end="1020" vehsPerHour="116.1558603121733"/>
  <flow id="JF9898" begin="1020" fromJunction="J0" toJunction="J2" end="1080" vehsPerHour="83.96010612967181"/>
  <flow id="JF9899" begin="1020" fromJunction="J0" toJunction="J4" end="1080" vehsPerHour="119.66297672927794"/>
  <flow id="JF9900" begin="1020" fromJunction="J2" toJunction="J0" end="1080" vehsPerHour="104.4044589477941"/>
  <flow id="JF9901" begin="1020" fromJunction="J2" toJunction="J3" end="1080" vehsPerHour="13.193070495258409"/>
  <flow id="JF9902" begin="1020" fromJunction="J2" toJunction="J4" end="1080" vehsPerHour="90.1481312516395"/>
  <flow id="JF9903" begin="1020" fromJunction="J3" toJunction="J0" end="1080" vehsPerHour="15.055372216569502"/>
  <flow id="JF9904" begin="1020" fromJunction="J3" toJunction="J4" end="1080" vehsPerHour="72.66924844536342"/>
  <flow id="JF9905" begin="1020" fromJunction="J4" toJunction="J0" end="1080" vehsPerHour="0.34944139594560225"/>
  <flow id="JF9906" begin="1020" fromJunction="J4" toJunction="J2" end="1080" vehsPerHour="40.995256641986764"/>
  <flow id="JF9907" begin="1080" fromJunction="J0" toJunction="J2" end="1140" vehsPerHour="133.71484197662468"/>
  <flow id="JF9908" begin="1080" fromJunction="J0" toJunction="J4" end="1140" vehsPerHour="68.90670437264544"/>
  <flow id="JF9909" begin="1080" fromJunction="J2" toJunction="J0" end="1140" vehsPerHour="101.57016419930603"/>
  <flow id="JF9910" begin="1080" fromJunction="J2" toJunction="J4" end="1140" vehsPerHour="62.26226570591057"/>
  <flow id="JF9911" begin="1080" fromJunction="J3" toJunction="J0" end="1140" vehsPerHour="107.0150211237116"/>
  <flow id="JF9912" begin="1080" fromJunction="J3" toJunction="J2" end="1140" vehsPerHour="83.42748953809931"/>
  <flow id="JF9913" begin="1080" fromJunction="J4" toJunction="J3" end="1140" vehsPerHour="113.3151957663837"/>
  <flow id="JF9914" begin="1140" fromJunction="J0" toJunction="J2" end="1200" vehsPerHour="50.65441124140357"/>
  <flow id="JF9915" begin="1140" fromJunction="J2" toJunction="J3" end="1200" vehsPerHour="48.3676017472084"/>
  <flow id="JF9916" begin="1140" fromJunction="J2" toJunction="J4" end="1200" vehsPerHour="124.19707268799897"/>
  <flow id="JF9917" begin="1140" fromJunction="J3" toJunction="J0" end="1200" vehsPerHour="63.114074147787896"/>
  <flow id="JF9918" begin="1140" fromJunction="J3" toJunction="J4" end="1200" vehsPerHour="71.53758257596296"/>
  <flow id="JF9919" begin="1140" fromJunction="J4" toJunction="J0" end="1200" vehsPerHour="112.87953144707203"/>
  <flow id="JF9920" begin="1140" fromJunction="J4" toJunction="J2" end="1200" vehsPerHour="100.60092263082164"/>
  <flow id="JF9921" begin="1140" fromJunction="J4" toJunction="J3" end="1200" vehsPerHour="57.58275989262871"/>
  <flow id="JF9922" begin="1200" fromJunction="J0" toJunction="J2" end="1260" vehsPerHour="62.43559133997834"/>
  <flow id="JF9923" begin="1200" fromJunction="J0" toJunction="J3" end="1260" vehsPerHour="118.50898834070045"/>
  <flow id="JF9924" begin="1200" fromJunction="J0" toJunction="J4" end="1260" vehsPerHour="63.333724838866004"/>
  <flow id="JF9925" begin="1200" fromJunction="J2" toJunction="J3" end="1260" vehsPerHour="61.77759232593322"/>
  <flow id="JF9926" begin="1200" fromJunction="J3" toJunction="J0" end="1260" vehsPerHour="51.27562334551461"/>
  <flow id="JF9927" begin="1200" fromJunction="J3" toJunction="J4" end="1260" vehsPerHour="126.9460926268851"/>
  <flow id="JF9928" begin="1200" fromJunction="J4" toJunction="J0" end="1260" vehsPerHour="11.585664859738813"/>
  <flow id="JF9929" begin="1260" fromJunction="J0" toJunction="J2" end="1320" vehsPerHour="93.3503480235275"/>
  <flow id="JF9930" begin="1260" fromJunction="J0" toJunction="J4" end="1320" vehsPerHour="15.809008985644798"/>
  <flow id="JF9931" begin="1260" fromJunction="J2" toJunction="J3" end="1320" vehsPerHour="133.8166441315871"/>
  <flow id="JF9932" begin="1260" fromJunction="J2" toJunction="J4" end="1320" vehsPerHour="134.59243395711374"/>
  <flow id="JF9933" begin="1260" fromJunction="J3" toJunction="J0" end="1320" vehsPerHour="126.24355881797433"/>
  <flow id="JF9934" begin="1260" fromJunction="J3" toJunction="J2" end="1320" vehsPerHour="75.95520334696823"/>
  <flow id="JF9935" begin="1260" fromJunction="J3" toJunction="J4" end="1320" vehsPerHour="0.41133854971154454"/>
  <flow id="JF9936" begin="1260" fromJunction="J4" toJunction="J0" end="1320" vehsPerHour="92.20989830454629"/>
  <flow id="JF9937" begin="1260" fromJunction="J4" toJunction="J2" end="1320" vehsPerHour="126.42998621033918"/>
  <flow id="JF9938" begin="1260" fromJunction="J4" toJunction="J3" end="1320" vehsPerHour="132.18595874408746"/>
  <flow id="JF9939" begin="1320" fromJunction="J0" toJunction="J2" end="1380" vehsPerHour="59.47631607747961"/>
  <flow id="JF9940" begin="1320" fromJunction="J0" toJunction="J3" end="1380" vehsPerHour="115.17833513364486"/>
  <flow id="JF9941" begin="1320" fromJunction="J2" toJunction="J0" end="1380" vehsPerHour="18.22597353238017"/>
  <flow id="JF9942" begin="1320" fromJunction="J2" toJunction="J3" end="1380" vehsPerHour="73.28552729970154"/>
  <flow id="JF9943" begin="1320" fromJunction="J2" toJunction="J4" end="1380" vehsPerHour="136.90381189360954"/>
  <flow id="JF9944" begin="1320" fromJunction="J3" toJunction="J0" end="1380" vehsPerHour="57.86225440527832"/>
  <flow id="JF9945" begin="1320" fromJunction="J3" toJunction="J2" end="1380" vehsPerHour="31.46909450831049"/>
  <flow id="JF9946" begin="1320" fromJunction="J3" toJunction="J4" end="1380" vehsPerHour="60.039669775832486"/>
  <flow id="JF9947" begin="1320" fromJunction="J4" toJunction="J2" end="1380" vehsPerHour="19.014121257912656"/>
  <flow id="JF9948" begin="1320" fromJunction="J4" toJunction="J3" end="1380" vehsPerHour="55.51434483775454"/>
  <flow id="JF9949" begin="1380" fromJunction="J0" toJunction="J2" end="1440" vehsPerHour="121.36569206937519"/>
  <flow id="JF9950" begin="1380" fromJunction="J2" toJunction="J3" end="1440" vehsPerHour="55.51102730770688"/>
  <flow id="JF9951" begin="1380" fromJunction="J3" toJunction="J2" end="1440" vehsPerHour="34.75047741254822"/>
  <flow id="JF9952" begin="1380" fromJunction="J3" toJunction="J4" end="1440" vehsPerHour="37.95368150315761"/>
  <flow id="JF9953" begin="1380" fromJunction="J4" toJunction="J0" end="1440" vehsPerHour="6.3855129705939415"/>
  <flow id="JF9954" begin="1380" fromJunction="J4" toJunction="J2" end="1440" vehsPerHour="43.87718065036733"/>
  <flow id="JF9955" begin="1380" fromJunction="J4" toJunction="J3" end="1440" vehsPerHour="98.9333095253069"/>
  <flow id="JF9956" begin="1440" fromJunction="J2" toJunction="J0" end="1500" vehsPerHour="43.40974984880802"/>
  <flow id="JF9957" begin="1440" fromJunction="J2" toJunction="J3" end="1500" vehsPerHour="8.96528177920351"/>
  <flow id="JF9958" begin="1440" fromJunction="J4" toJunction="J0" end="1500" vehsPerHour="18.314729598022986"/>
  <flow id="JF9959" begin="1440" fromJunction="J4" toJunction="J2" end="1500" vehsPerHour="60.452356684017545"/>
  <flow id="JF9960" begin="1440" fromJunction="J4" toJunction="J3" end="1500" vehsPerHour="7.251194493416518"/>
  <flow id="JF9961" begin="1500" fromJunction="J2" toJunction="J0" end="1560" vehsPerHour="30.903637925183286"/>
  <flow id="JF9962" begin="1500" fromJunction="J2" toJunction="J4" end="1560" vehsPerHour="41.38438484862008"/>
  <flow id="JF9963" begin="1500" fromJunction="J3" toJunction="J0" end="1560" vehsPerHour="114.92754375201928"/>
  <flow id="JF9964" begin="1500" fromJunction="J3" toJunction="J2" end="1560" vehsPerHour="106.27366789584258"/>
  <flow id="JF9965" begin="1560" fromJunction="J0" toJunction="J2" end="1620" vehsPerHour="124.31241192328443"/>
  <flow id="JF9966" begin="1560" fromJunction="J0" toJunction="J4" end="1620" vehsPerHour="110.18525176795534"/>
  <flow id="JF9967" begin="1560" fromJunction="J2" toJunction="J0" end="1620" vehsPerHour="53.94967644989842"/>
  <flow id="JF9968" begin="1560" fromJunction="J2" toJunction="J3" end="1620" vehsPerHour="22.750662897357618"/>
  <flow id="JF9969" begin="1560" fromJunction="J2" toJunction="J4" end="1620" vehsPerHour="31.21865123906886"/>
  <flow id="JF9970" begin="1560" fromJunction="J3" toJunction="J4" end="1620" vehsPerHour="13.582664923780138"/>
  <flow id="JF9971" begin="1560" fromJunction="J4" toJunction="J0" end="1620" vehsPerHour="22.35771825522684"/>
  <flow id="JF9972" begin="1560" fromJunction="J4" toJunction="J2" end="1620" vehsPerHour="12.861128807669575"/>
  <flow id="JF9973" begin="1560" fromJunction="J4" toJunction="J3" end="1620" vehsPerHour="48.95329020886603"/>
  <flow id="JF9974" begin="1620" fromJunction="J2" toJunction="J0" end="1680" vehsPerHour="47.64576170165216"/>
  <flow id="JF9975" begin="1620" fromJunction="J2" toJunction="J3" end="1680" vehsPerHour="98.77116478824678"/>
  <flow id="JF9976" begin="1620" fromJunction="J2" toJunction="J4" end="1680" vehsPerHour="5.316042660563594"/>
  <flow id="JF9977" begin="1620" fromJunction="J3" toJunction="J0" end="1680" vehsPerHour="106.5403058085378"/>
  <flow id="JF9978" begin="1620" fromJunction="J3" toJunction="J2" end="1680" vehsPerHour="105.79839318239557"/>
  <flow id="JF9979" begin="1620" fromJunction="J4" toJunction="J2" end="1680" vehsPerHour="114.29867277784976"/>
  <flow id="JF9980" begin="1620" fromJunction="J4" toJunction="J3" end="1680" vehsPerHour="38.877084159675704"/>
  <flow id="JF9981" begin="1680" fromJunction="J0" toJunction="J4" end="1740" vehsPerHour="3.210431103126394"/>
  <flow id="JF9982" begin="1680" fromJunction="J2" toJunction="J0" end="1740" vehsPerHour="122.87447595785112"/>
  <flow id="JF9983" begin="1680" fromJunction="J2" toJunction="J3" end="1740" vehsPerHour="93.75296063745557"/>
  <flow id="JF9984" begin="1680" fromJunction="J2" toJunction="J4" end="1740" vehsPerHour="131.1810377481827"/>
  <flow id="JF9985" begin="1680" fromJunction="J3" toJunction="J0" end="1740" vehsPerHour="73.92259656330495"/>
  <flow id="JF9986" begin="1680" fromJunction="J3" toJunction="J2" end="1740" vehsPerHour="5.7179058626216195"/>
  <flow id="JF9987" begin="1680" fromJunction="J4" toJunction="J0" end="1740" vehsPerHour="0.12523460831766595"/>
  <flow id="JF9988" begin="1680" fromJunction="J4" toJunction="J2" end="1740" vehsPerHour="25.93561394909408"/>
  <flow id="JF9989" begin="1680" fromJunction="J4" toJunction="J3" end="1740" vehsPerHour="85.52783424682677"/>
  <flow id="JF9990" begin="1740" fromJunction="J0" toJunction="J2" end="1800" vehsPerHour="31.73653851208529"/>
  <flow id="JF9991" begin="1740" fromJunction="J0" toJunction="J3" end="1800" vehsPerHour="14.721182930743145"/>
  <flow id="JF9992" begin="1740" fromJunction="J0" toJunction="J4" end="1800" vehsPerHour="20.647491498753755"/>
  <flow id="JF9993" begin="1740" fromJunction="J2" toJunction="J0" end="1800" vehsPerHour="72.28264769266384"/>
  <flow id="JF9994" begin="1740" fromJunction="J3" toJunction="J0" end="1800" vehsPerHour="61.53822037160853"/>
  <flow id="JF9995" begin="1740" fromJunction="J3" toJunction="J2" end="1800" vehsPerHour="50.40713073667127"/>
  <flow id="JF9996" begin="1740" fromJunction="J3" toJunction="J4" end="1800" vehsPerHour="90.56880284290735"/>
  <flow id="JF9997" begin="1740" fromJunction="J4" toJunction="J0" end="1800" vehsPerHour="56.55220033691724"/>
  <flow id="JF9998" begin="1740" fromJunction="J4" toJunction="J3" end="1800" vehsPerHour="117.05205965880133"/>
  <flow id="JF9999" begin="1800" fromJunction="J0" toJunction="J2" end="1860" vehsPerHour="85.90426965928101"/>
  <flow id="JF10000" begin="1800" fromJunction="J0" toJunction="J3" end="1860" vehsPerHour="79.01784921994583"/>
  <flow id="JF10001" begin="1800" fromJunction="J0" toJunction="J4" end="1860" vehsPerHour="93.3573911356984"/>
  <flow id="JF10002" begin="1800" fromJunction="J2" toJunction="J0" end="1860" vehsPerHour="25.433498177059406"/>
  <flow id="JF10003" begin="1800" fromJunction="J2" toJunction="J3" end="1860" vehsPerHour="43.841628424663135"/>
  <flow id="JF10004" begin="1800" fromJunction="J3" toJunction="J0" end="1860" vehsPerHour="84.04490792825696"/>
  <flow id="JF10005" begin="1800" fromJunction="J3" toJunction="J2" end="1860" vehsPerHour="9.827324356853"/>
  <flow id="JF10006" begin="1800" fromJunction="J3" toJunction="J4" end="1860" vehsPerHour="65.04370205516457"/>
  <flow id="JF10007" begin="1800" fromJunction="J4" toJunction="J0" end="1860" vehsPerHour="114.01123979485715"/>
  <flow id="JF10008" begin="1800" fromJunction="J4" toJunction="J2" end="1860" vehsPerHour="123.28111628874763"/>
  <flow id="JF10009" begin="1800" fromJunction="J4" toJunction="J3" end="1860" vehsPerHour="128.39828781888875"/>
  <flow id="JF10010" begin="1860" fromJunction="J0" toJunction="J2" end="1920" vehsPerHour="89.94745435651464"/>
  <flow id="JF10011" begin="1860" fromJunction="J0" toJunction="J3" end="1920" vehsPerHour="93.89002927467347"/>
  <flow id="JF10012" begin="1860" fromJunction="J0" toJunction="J4" end="1920" vehsPerHour="37.73537345410496"/>
  <flow id="JF10013" begin="1860" fromJunction="J2" toJunction="J0" end="1920" vehsPerHour="62.245631675387386"/>
  <flow id="JF10014" begin="1860" fromJunction="J2" toJunction="J3" end="1920" vehsPerHour="17.485920172726114"/>
  <flow id="JF10015" begin="1860" fromJunction="J2" toJunction="J4" end="1920" vehsPerHour="91.72165942281981"/>