<?xml version="1.0" encoding="UTF-8"?>
<routes xmlns:xsi="http://www.w3.org/2001/XMLSchema-instance" xsi:noNamespaceSchemaLocation="http://sumo.dlr.de/xsd/routes_file.xsd">
  <flow id="JF5592" begin="0" fromJunction="J0" toJunction="J2" end="60" vehsPerHour="102.91332386900092"/>
  <flow id="JF5593" begin="0" fromJunction="J0" toJunction="J3" end="60" vehsPerHour="49.38594377090922"/>
  <flow id="JF5594" begin="0" fromJunction="J0" toJunction="J4" end="60" vehsPerHour="68.43650344853468"/>
  <flow id="JF5595" begin="0" fromJunction="J2" toJunction="J0" end="60" vehsPerHour="32.61138812204645"/>
  <flow id="JF5596" begin="0" fromJunction="J2" toJunction="J3" end="60" vehsPerHour="134.01838047825072"/>
  <flow id="JF5597" begin="0" fromJunction="J2" toJunction="J4" end="60" vehsPerHour="104.84336991242128"/>
  <flow id="JF5598" begin="0" fromJunction="J3" toJunction="J0" end="60" vehsPerHour="104.45162656185687"/>
  <flow id="JF5599" begin="0" fromJunction="J3" toJunction="J2" end="60" vehsPerHour="13.337015112322383"/>
  <flow id="JF5600" begin="0" fromJunction="J3" toJunction="J4" end="60" vehsPerHour="7.353799511694533"/>
  <flow id="JF5601" begin="0" fromJunction="J4" toJunction="J0" end="60" vehsPerHour="77.44208091242756"/>
  <flow id="JF5602" begin="0" fromJunction="J4" toJunction="J2" end="60" vehsPerHour="11.437551409153329"/>
  <flow id="JF5603" begin="0" fromJunction="J4" toJunction="J3" end="60" vehsPerHour="1.9677590362764708"/>
  <flow id="JF5604" begin="60" fromJunction="J0" toJunction="J3" end="120" vehsPerHour="136.19879743191441"/>
  <flow id="JF5605" begin="60" fromJunction="J0" toJunction="J4" end="120" vehsPerHour="70.17882087899447"/>
  <flow id="JF5606" begin="60" fromJunction="J2" toJunction="J0" end="120" vehsPerHour="6.29158217267919"/>
  <flow id="JF5607" begin="60" fromJunction="J2" toJunction="J4" end="120" vehsPerHour="12.625455747197494"/>
  <flow id="JF5608" begin="60" fromJunction="J3" toJunction="J0" end="120" vehsPerHour="40.6827570125613"/>
  <flow id="JF5609" begin="60" fromJunction="J3" toJunction="J2" end="120" vehsPerHour="79.79927844543829"/>
  <flow id="JF5610" begin="60" fromJunction="J4" toJunction="J0" end="120" vehsPerHour="54.80820963038573"/>
  <flow id="JF5611" begin="60" fromJunction="J4" toJunction="J2" end="120" vehsPerHour="9.443675465940926"/>
  <flow id="JF5612" begin="60" fromJunction="J4" toJunction="J3" end="120" vehsPerHour="49.81563002664345"/>
  <flow id="JF5613" begin="120" fromJunction="J0" toJunction="J2" end="180" vehsPerHour="89.47211507439079"/>
  <flow id="JF5614" begin="120" fromJunction="J0" toJunction="J4" end="180" vehsPerHour="64.12664461071591"/>
  <flow id="JF5615" begin="120" fromJunction="J2" toJunction="J0" end="180" vehsPerHour="68.3023233008874"/>
  <flow id="JF5616" begin="120" fromJunction="J2" toJunction="J3" end="180" vehsPerHour="7.167813467713515"/>
  <flow id="JF5617" begin="120" fromJunction="J2" toJunction="J4" end="180" vehsPerHour="5.009370408337268"/>
  <flow id="JF5618" begin="120" fromJunction="J3" toJunction="J4" end="180" vehsPerHour="110.34335569242249"/>
  <flow id="JF5619" begin="120" fromJunction="J4" toJunction="J0" end="180" vehsPerHour="25.194567571965923"/>
  <flow id="JF5620" begin="120" fromJunction="J4" toJunction="J2" end="180" vehsPerHour="69.73641299026272"/>
  <flow id="JF5621" begin="180" fromJunction="J0" toJunction="J3" end="240" vehsPerHour="55.66023607871947"/>
  <flow id="JF5622" begin="180" fromJunction="J0" toJunction="J4" end="240" vehsPerHour="111.90866745268882"/>
  <flow id="JF5623" begin="180" fromJunction="J2" toJunction="J0" end="240" vehsPerHour="114.40298047581597"/>
  <flow id="JF5624" begin="180" fromJunction="J2" toJunction="J4" end="240" vehsPerHour="71.57189018851992"/>
  <flow id="JF5625" begin="180" fromJunction="J3" toJunction="J0" end="240" vehsPerHour="119.43260914854187"/>
  <flow id="JF5626" begin="180" fromJunction="J3" toJunction="J4" end="240" vehsPerHour="52.40843919560455"/>
  <flow id="JF5627" begin="180" fromJunction="J4" toJunction="J0" end="240" vehsPerHour="95.10994986188246"/>
  <flow id="JF5628" begin="180" fromJunction="J4" toJunction="J2" end="240" vehsPerHour="64.73423120899838"/>
  <flow id="JF5629" begin="240" fromJunction="J0" toJunction="J2" end="300" vehsPerHour="27.64689454173432"/>
  <flow id="JF5630" begin="240" fromJunction="J0" toJunction="J4" end="300" vehsPerHour="114.84476010652753"/>
  <flow id="JF5631" begin="240" fromJunction="J2" toJunction="J0" end="300" vehsPerHour="18.77861269642981"/>
  <flow id="JF5632" begin="240" fromJunction="J2" toJunction="J3" end="300" vehsPerHour="8.043253406932982"/>
  <flow id="JF5633" begin="240" fromJunction="J2" toJunction="J4" end="300" vehsPerHour="82.33665354663712"/>
  <flow id="JF5634" begin="240" fromJunction="J3" toJunction="J0" end="300" vehsPerHour="29.908831000057436"/>
  <flow id="JF5635" begin="240" fromJunction="J4" toJunction="J0" end="300" vehsPerHour="103.66123283525462"/>
  <flow id="JF5636" begin="240" fromJunction="J4" toJunction="J2" end="300" vehsPerHour="42.783398657561"/>
  <flow id="JF5637" begin="240" fromJunction="J4" toJunction="J3" end="300" vehsPerHour="38.35516658606996"/>
  <flow id="JF5638" begin="300" fromJunction="J0" toJunction="J2" end="360" vehsPerHour="72.31607709415793"/>
  <flow id="JF5639" begin="300" fromJunction="J0" toJunction="J3" end="360" vehsPerHour="109.9699887375955"/>
  <flow id="JF5640" begin="300" fromJunction="J0" toJunction="J4" end="360" vehsPerHour="70.24058338774951"/>
  <flow id="JF5641" begin="300" fromJunction="J2" toJunction="J4" end="360" vehsPerHour="13.489169068568703"/>
  <flow id="JF5642" begin="300" fromJunction="J3" toJunction="J0" end="360" vehsPerHour="36.358111525134404"/>
  <flow id="JF5643" begin="300" fromJunction="J3" toJunction="J4" end="360" vehsPerHour="47.75302590560669"/>
  <flow id="JF5644" begin="300" fromJunction="J4" toJunction="J0" end="360" vehsPerHour="123.62043288622394"/>
  <flow id="JF5645" begin="300" fromJunction="J4" toJunction="J2" end="360" vehsPerHour="26.663142047618912"/>
  <flow id="JF5646" begin="300" fromJunction="J4" toJunction="J3" end="360" vehsPerHour="29.236757185432957"/>
  <flow id="JF5647" begin="360" fromJunction="J0" toJunction="J2" end="420" vehsPerHour="126.48168195493436"/>
  <flow id="JF5648" begin="360" fromJunction="J0" toJunction="J3" end="420" vehsPerHour="115.07545743066818"/>
  <flow id="JF5649" begin="360" fromJunction="J0" toJunction="J4" end="420" vehsPerHour="130.79813934324426"/>
  <flow id="JF5650" begin="360" fromJunction="J2" toJunction="J0" end="420" vehsPerHour="131.18397956498072"/>
  <flow id="JF5651" begin="360" fromJunction="J2" toJunction="J3" end="420" vehsPerHour="69.71721241694074"/>
  <flow id="JF5652" begin="360" fromJunction="J3" toJunction="J0" end="420" vehsPerHour="9.07456069812436"/>
  <flow id="JF5653" begin="360" fromJunction="J3" toJunction="J4" end="420" vehsPerHour="129.55564271912257"/>
  <flow id="JF5654" begin="360" fromJunction="J4" toJunction="J0" end="420" vehsPerHour="54.36367972557205"/>
  <flow id="JF5655" begin="360" fromJunction="J4" toJunction="J2" end="420" vehsPerHour="58.70180673895452"/>
  <flow id="JF5656" begin="360" fromJunction="J4" toJunction="J3" end="420" vehsPerHour="90.94646224446053"/>
  <flow id="JF5657" begin="420" fromJunction="J0" toJunction="J3" end="480" vehsPerHour="74.0066037833827"/>
  <flow id="JF5658" begin="420" fromJunction="J0" toJunction="J4" end="480" vehsPerHour="9.422031151607413"/>
  <flow id="JF5659" begin="420" fromJunction="J2" toJunction="J3" end="480" vehsPerHour="118.79967745145673"/>
  <flow id="JF5660" begin="420" fromJunction="J3" toJunction="J2" end="480" vehsPerHour="77.75584784573391"/>
  <flow id="JF5661" begin="420" fromJunction="J4" toJunction="J0" end="480" vehsPerHour="69.02916762353817"/>
  <flow id="JF5662" begin="420" fromJunction="J4" toJunction="J2" end="480" vehsPerHour="118.02776388305683"/>
  <flow id="JF5663" begin="420" fromJunction="J4" toJunction="J3" end="480" vehsPerHour="127.69734041234092"/>
  <flow id="JF5664" begin="480" fromJunction="J0" toJunction="J2" end="540" vehsPerHour="95.91411858317083"/>
  <flow id="JF5665" begin="480" fromJunction="J0" toJunction="J3" end="540" vehsPerHour="64.17712167561987"/>
  <flow id="JF5666" begin="480" fromJunction="J2" toJunction="J3" end="540" vehsPerHour="48.87960225254844"/>
  <flow id="JF5667" begin="480" fromJunction="J2" toJunction="J4" end="540" vehsPerHour="112.29447214191302"/>
  <flow id="JF5668" begin="480" fromJunction="J3" toJunction="J0" end="540" vehsPerHour="39.062511567559255"/>
  <flow id="JF5669" begin="480" fromJunction="J3" toJunction="J2" end="540" vehsPerHour="61.79927490659993"/>
  <flow id="JF5670" begin="480" fromJunction="J3" toJunction="J4" end="540" vehsPerHour="38.75418121683595"/>
  <flow id="JF5671" begin="480" fromJunction="J4" toJunction="J0" end="540" vehsPerHour="28.957160360243815"/>
  <flow id="JF5672" begin="480" fromJunction="J4" toJunction="J2" end="540" vehsPerHour="55.803768581864006"/>
  <flow id="JF5673" begin="540" fromJunction="J0" toJunction="J2" end="600" vehsPerHour="41.66199395703705"/>
  <flow id="JF5674" begin="540" fromJunction="J0" toJunction="J3" end="600" vehsPerHour="27.710434417387496"/>
  <flow id="JF5675" begin="540" fromJunction="J2" toJunction="J0" end="600" vehsPerHour="101.67941017304652"/>
  <flow id="JF5676" begin="540" fromJunction="J2" toJunction="J3" end="600" vehsPerHour="35.50807900801804"/>
  <flow id="JF5677" begin="540" fromJunction="J2" toJunction="J4" end="600" vehsPerHour="58.01423667258764"/>
  <flow id="JF5678" begin="540" fromJunction="J3" toJunction="J0" end="600" vehsPerHour="118.73488158619055"/>
  <flow id="JF5679" begin="540" fromJunction="J3" toJunction="J2" end="600" vehsPerHour="19.324094920788067"/>
  <flow id="JF5680" begin="540" fromJunction="J3" toJunction="J4" end="600" vehsPerHour="22.277687819068053"/>
  <flow id="JF5681" begin="540" fromJunction="J4" toJunction="J2" end="600" vehsPerHour="28.171070065843033"/>
  <flow id="JF5682" begin="600" fromJunction="J0" toJunction="J2" end="660" vehsPerHour="107.9479354968836"/>
  <flow id="JF5683" begin="600" fromJunction="J0" toJunction="J4" end="660" vehsPerHour="126.06505736089656"/>
  <flow id="JF5684" begin="600" fromJunction="J2" toJunction="J0" end="660" vehsPerHour="113.681754665089"/>
  <flow id="JF5685" begin="600" fromJunction="J2" toJunction="J3" end="660" vehsPerHour="23.044709420931472"/>
  <flow id="JF5686" begin="600" fromJunction="J3" toJunction="J0" end="660" vehsPerHour="117.45473699028913"/>
  <flow id="JF5687" begin="600" fromJunction="J3" toJunction="J2" end="660" vehsPerHour="135.7967830695229"/>
  <flow id="JF5688" begin="600" fromJunction="J4" toJunction="J0" end="660" vehsPerHour="17.30868318518807"/>
  <flow id="JF5689" begin="600" fromJunction="J4" toJunction="J3" end="660" vehsPerHour="65.95077086427419"/>
  <flow id="JF5690" begin="660" fromJunction="J0" toJunction="J4" end="720" vehsPerHour="61.042308779751025"/>
  <flow id="JF5691" begin="660" fromJunction="J2" toJunction="J0" end="720" vehsPerHour="105.6261026973269"/>
  <flow id="JF5692" begin="660" fromJunction="J2" toJunction="J3" end="720" vehsPerHour="116.16774402706295"/>
  <flow id="JF5693" begin="660" fromJunction="J2" toJunction="J4" end="720" vehsPerHour="117.37303309210135"/>
  <flow id="JF5694" begin="660" fromJunction="J3" toJunction="J2" end="720" vehsPerHour="124.0251606645657"/>
  <flow id="JF5695" begin="660" fromJunction="J4" toJunction="J3" end="720" vehsPerHour="3.9707728920570875"/>
  <flow id="JF5696" begin="720" fromJunction="J0" toJunction="J3" end="780" vehsPerHour="55.7601969520686"/>
  <flow id="JF5697" begin="720" fromJunction="J0" toJunction="J4" end="780" vehsPerHour="131.12061100765604"/>
  <flow id="JF5698" begin="720" fromJunction="J2" toJunction="J0" end="780" vehsPerHour="97.59113979438773"/>
  <flow id="JF5699" begin="720" fromJunction="J2" toJunction="J4" end="780" vehsPerHour="31.22569405956042"/>
  <flow id="JF5700" begin="720" fromJunction="J3" toJunction="J0" end="780" vehsPerHour="23.118349086804763"/>
  <flow id="JF5701" begin="720" fromJunction="J3" toJunction="J2" end="780" vehsPerHour="126.72820225681369"/>
  <flow id="JF5702" begin="720" fromJunction="J3" toJunction="J4" end="780" vehsPerHour="2.5450856896253553"/>
  <flow id="JF5703" begin="720" fromJunction="J4" toJunction="J2" end="780" vehsPerHour="109.15086224035353"/>
  <flow id="JF5704" begin="720" fromJunction="J4" toJunction="J3" end="780" vehsPerHour="9.781697815750476"/>
  <flow id="JF5705" begin="780" fromJunction="J0" toJunction="J4" end="840" vehsPerHour="117.39901655490856"/>
  <flow id="JF5706" begin="780" fromJunction="J2" toJunction="J0" end="840" vehsPerHour="116.10853206038935"/>
  <flow id="JF5707" begin="780" fromJunction="J2" toJunction="J3" end="840" vehsPerHour="5.491744341014866"/>
  <flow id="JF5708" begin="780" fromJunction="J3" toJunction="J0" end="840" vehsPerHour="100.86667370879893"/>
  <flow id="JF5709" begin="780" fromJunction="J4" toJunction="J2" end="840" vehsPerHour="48.59763210782762"/>
  <flow id="JF5710" begin="780" fromJunction="J4" toJunction="J3" end="840" vehsPerHour="74.81383308767167"/>
  <flow id="JF5711" begin="840" fromJunction="J2" toJunction="J0" end="900" vehsPerHour="37.74065437374537"/>
  <flow id="JF5712" begin="840" fromJunction="J2" toJunction="J3" end="900" vehsPerHour="119.87007062502805"/>
  <flow id="JF5713" begin="840" fromJunction="J2" toJunction="J4" end="900" vehsPerHour="133.7799555847216"/>
  <flow id="JF5714" begin="840" fromJunction="J3" toJunction="J0" end="900" vehsPerHour="67.73259306833197"/>
  <flow id="JF5715" begin="840" fromJunction="J3" toJunction="J2" end="900" vehsPerHour="98.31500402042315"/>
  <flow id="JF5716" begin="840" fromJunction="J3" toJunction="J4" end="900" vehsPerHour="130.1684177844589"/>
  <flow id="JF5717" begin="840" fromJunction="J4" toJunction="J0" end="900" vehsPerHour="7.549984706059899"/>
  <flow id="JF5718" begin="840" fromJunction="J4" toJunction="J2" end="900" vehsPerHour="123.70926462469544"/>
  <flow id="JF5719" begin="840" fromJunction="J4" toJunction="J3" end="900" vehsPerHour="49.549836794218855"/>
  <flow id="JF5720" begin="900" fromJunction="J0" toJunction="J2" end="960" vehsPerHour="129.05091964225244"/>
  <flow id="JF5721" begin="900" fromJunction="J0" toJunction="J3" end="960" vehsPerHour="6.467767193681802"/>
  <flow id="JF5722" begin="900" fromJunction="J0" toJunction="J4" end="960" vehsPerHour="114.27427320066316"/>
  <flow id="JF5723" begin="900" fromJunction="J2" toJunction="J0" end="960" vehsPerHour="48.41234994290542"/>
  <flow id="JF5724" begin="900" fromJunction="J2" toJunction="J3" end="960" vehsPerHour="97.78856554308113"/>
  <flow id="JF5725" begin="900" fromJunction="J2" toJunction="J4" end="960" vehsPerHour="61.36921238506512"/>
  <flow id="JF5726" begin="900" fromJunction="J3" toJunction="J2" end="960" vehsPerHour="111.17791363345457"/>
  <flow id="JF5727" begin="900" fromJunction="J3" toJunction="J4" end="960" vehsPerHour="22.214915833673654"/>
  <flow id="JF5728" begin="900" fromJunction="J4" toJunction="J0" end="960" vehsPerHour="126.67370282400732"/>
  <flow id="JF5729" begin="900" fromJunction="J4" toJunction="J2" end="960" vehsPerHour="70.01763438030166"/>
  <flow id="JF5730" begin="900" fromJunction="J4" toJunction="J3" end="960" vehsPerHour="126.61272420374594"/>
  <flow id="JF5731" begin="960" fromJunction="J0" toJunction="J3" end="1020" vehsPerHour="123.59383099993762"/>
  <flow id="JF5732" begin="960" fromJunction="J0" toJunction="J4" end="1020" vehsPerHour="14.126350180924492"/>
  <flow id="JF5733" begin="960" fromJunction="J2" toJunction="J0" end="1020" vehsPerHour="78.38235136687926"/>
  <flow id="JF5734" begin="960" fromJunction="J2" toJunction="J4" end="1020" vehsPerHour="79.924045894024"/>
  <flow id="JF5735" begin="960" fromJunction="J3" toJunction="J0" end="1020" vehsPerHour="51.95068583347211"/>
  <flow id="JF5736" begin="960" fromJunction="J3" toJunction="J4" end="1020" vehsPerHour="63.582405388639145"/>
  <flow id="JF5737" begin="960" fromJunction="J4" toJunction="J0" end="1020" vehsPerHour="70.69291751654191"/>
  <flow id="JF5738" begin="960" fromJunction="J4" toJunction="J3" end="1020" vehsPerHour="123.54932176712494"/>
  <flow id="JF5739" begin="1020" fromJunction="J0" toJunction="J2" end="1080" vehsPerHour="42.45397364610817"/>
  <flow id="JF5740" begin="1020" fromJunction="J0" toJunction="J3" end="1080" vehsPerHour="116.34674663269355"/>
  <flow id="JF5741" begin="1020" fromJunction="J0" toJunction="J4" end="1080" vehsPerHour="32.020373486802676"/>
  <flow id="JF5742" begin="1020" fromJunction="J2" toJunction="J3" end="1080" vehsPerHour="8.289872135582423"/>
  <flow id="JF5743" begin="1020" fromJunction="J3" toJunction="J2" end="1080" vehsPerHour="13.42634641754492"/>
  <flow id="JF5744" begin="1020" fromJunction="J4" toJunction="J0" end="1080" vehsPerHour="2.9831481355660383"/>
  <flow id="JF5745" begin="1020" fromJunction="J4" toJunction="J3" end="1080" vehsPerHour="84.81489984831292"/>
  <flow id="JF5746" begin="1080" fromJunction="J0" toJunction="J2" end="1140" vehsPerHour="118.12784784467337"/>
  <flow id="JF5747" begin="1080" fromJunction="J2" toJunction="J0" end="1140" vehsPerHour="80.77534383210246"/>
  <flow id="JF5748" begin="1080" fromJunction="J2" toJunction="J3" end="1140" vehsPerHour="115.96382716579144"/>
  <flow id="JF5749" begin="1080" fromJunction="J3" toJunction="J0" end="1140" vehsPerHour="16.6706854501606"/>
  <flow id="JF5750" begin="1080" fromJunction="J3" toJunction="J4" end="1140" vehsPerHour="90.87782726786398"/>
  <flow id="JF5751" begin="1080" fromJunction="J4" toJunction="J2" end="1140" vehsPerHour="123.67977285900571"/>
  <flow id="JF5752" begin="1080" fromJunction="J4" toJunction="J3" end="1140" vehsPerHour="24.779439045258602"/>
  <flow id="JF5753" begin="1140" fromJunction="J0" toJunction="J3" end="1200" vehsPerHour="36.20398953091372"/>
  <flow id="JF5754" begin="1140" fromJunction="J2" toJunction="J3" end="1200" vehsPerHour="29.942127400420294"/>
  <flow id="JF5755" begin="1140" fromJunction="J2" toJunction="J4" end="1200" vehsPerHour="56.674975794242194"/>
  <flow id="JF5756" begin="1140" fromJunction="J3" toJunction="J0" end="1200" vehsPerHour="56.01880270641601"/>
  <flow id="JF5757" begin="1140" fromJunction="J4" toJunction="J3" end="1200" vehsPerHour="74.81585340266868"/>
  <flow id="JF5758" begin="1200" fromJunction="J0" toJunction="J3" end="1260" vehsPerHour="52.63405822863409"/>
  <flow id="JF5759" begin="1200" fromJunction="J0" toJunction="J4" end="1260" vehsPerHour="29.996306264337306"/>
  <flow id="JF5760" begin="1200" fromJunction="J2" toJunction="J4" end="1260" vehsPerHour="48.21370417103305"/>
  <flow id="JF5761" begin="1200" fromJunction="J3" toJunction="J0" end="1260" vehsPerHour="63.57613937769644"/>
  <flow id="JF5762" begin="1200" fromJunction="J3" toJunction="J2" end="1260" vehsPerHour="36.6096048039006"/>
  <flow id="JF5763" begin="1200" fromJunction="J3" toJunction="J4" end="1260" vehsPerHour="70.56148606282531"/>
  <flow id="JF5764" begin="1200" fromJunction="J4" toJunction="J0" end="1260" vehsPerHour="83.01762977724617"/>
  <flow id="JF5765" begin="1200" fromJunction="J4" toJunction="J3" end="1260" vehsPerHour="136.64961798114578"/>
  <flow id="JF5766" begin="1260" fromJunction="J0" toJunction="J2" end="1320" vehsPerHour="37.581791230521645"/>
  <flow id="JF5767" begin="1260" fromJunction="J0" toJunction="J4" end="1320" vehsPerHour="78.14520668977038"/>
  <flow id="JF5768" begin="1260" fromJunction="J2" toJunction="J0" end="1320" vehsPerHour="27.37534728808774"/>
  <flow id="JF5769" begin="1260" fromJunction="J2" toJunction="J4" end="1320" vehsPerHour="84.7140000118959"/>
  <flow id="JF5770" begin="1260" fromJunction="J3" toJunction="J0" end="1320" vehsPerHour="104.95946272138093"/>
  <flow id="JF5771" begin="1260" fromJunction="J3" toJunction="J2" end="1320" vehsPerHour="55.61153559849558"/>
  <flow id="JF5772" begin="1260" fromJunction="J3" toJunction="J4" end="1320" vehsPerHour="36.7206906033074"/>
  <flow id="JF5773" begin="1260" fromJunction="J4" toJunction="J2" end="1320" vehsPerHour="17.57123991544725"/>
  <flow id="JF5774" begin="1260" fromJunction="J4" toJunction="J3" end="1320" vehsPerHour="15.77906340254265"/>
  <flow id="JF5775" begin="1320" fromJunction="J0" toJunction="J3" end="1380" vehsPerHour="54.58545447030524"/>
  <flow id="JF5776" begin="1320" fromJunction="J0" toJunction="J4" end="1380" vehsPerHour="13.890722342456279"/>
  <flow id="JF5777" begin="1320" fromJunction="J2" toJunction="J0" end="1380" vehsPerHour="3.2135256072815443"/>
  <flow id="JF5778" begin="1320" fromJunction="J2" toJunction="J3" end="1380" vehsPerHour="111.68334523536642"/>
  <flow id="JF5779" begin="1320" fromJunction="J2" toJunction="J4" end="1380" vehsPerHour="71.29363736532835"/>
  <flow id="JF5780" begin="1320" fromJunction="J3" toJunction="J2" end="1380" vehsPerHour="122.21845090548003"/>
  <flow id="JF5781" begin="1320" fromJunction="J3" toJunction="J4" end="1380" vehsPerHour="81.40368479296977"/>
  <flow id="JF5782" begin="1320" fromJunction="J4" toJunction="J0" end="1380" vehsPerHour="90.70258872988295"/>
  <flow id="JF5783" begin="1320" fromJunction="J4" toJunction="J2" end="1380" vehsPerHour="120.12696036298667"/>
  <flow id="JF5784" begin="1320" fromJunction="J4" toJunction="J3" end="1380" vehsPerHour="109.00911472604581"/>
  <flow id="JF5785" begin="1380" fromJunction="J0" toJunction="J2" end="1440" vehsPerHour="70.18777029745527"/>
  <flow id="JF5786" begin="1380" fromJunction="J2" toJunction="J0" end="1440" vehsPerHour="53.69197313380813"/>
  <flow id="JF5787" begin="1380" fromJunction="J2" toJunction="J4" end="1440" vehsPerHour="74.42269151788895"/>
  <flow id="JF5788" begin="1380" fromJunction="J3" toJunction="J0" end="1440" vehsPerHour="18.752554322898007"/>
  <flow id="JF5789" begin="1380" fromJunction="J3" toJunction="J2" end="1440" vehsPerHour="82.93184950425784"/>
  <flow id="JF5790" begin="1380" fromJunction="J3" toJunction="J4" end="1440" vehsPerHour="67.29135710642248"/>
  <flow id="JF5791" begin="1380" fromJunction="J4" toJunction="J2" end="1440" vehsPerHour="99.60176811197924"/>
  <flow id="JF5792" begin="1440" fromJunction="J0" toJunction="J3" end="1500" vehsPerHour="104.39873970026609"/>
  <flow id="JF5793" begin="1440" fromJunction="J0" toJunction="J4" end="1500" vehsPerHour="86.00788250826623"/>
  <flow id="JF5794" begin="1440" fromJunction="J2" toJunction="J0" end="1500" vehsPerHour="58.02598273449798"/>
  <flow id="JF5795" begin="1440" fromJunction="J2" toJunction="J3" end="1500" vehsPerHour="87.51414147853325"/>
  <flow id="JF5796" begin="1440" fromJunction="J2" toJunction="J4" end="1500" vehsPerHour="16.282377300411657"/>
  <flow id="JF5797" begin="1440" fromJunction="J3" toJunction="J0" end="1500" vehsPerHour="111.73164922010628"/>
  <flow id="JF5798" begin="1440" fromJunction="J3" toJunction="J2" end="1500" vehsPerHour="88.49143478177807"/>
  <flow id="JF5799" begin="1440" fromJunction="J3" toJunction="J4" end="1500" vehsPerHour="64.74491994375535"/>
  <flow id="JF5800" begin="1500" fromJunction="J0" toJunction="J2" end="1560" vehsPerHour="47.77575675441484"/>
  <flow id="JF5801" begin="1500" fromJunction="J2" toJunction="J3" end="1560" vehsPerHour="26.816958104088553"/>
  <flow id="JF5802" begin="1500" fromJunction="J2" toJunction="J4" end="1560" vehsPerHour="67.62708788503654"/>
  <flow id="JF5803" begin="1500" fromJunction="J3" toJunction="J4" end="1560" vehsPerHour="136.10042189124474"/>
  <flow id="JF5804" begin="1500" fromJunction="J4" toJunction="J0" end="1560" vehsPerHour="77.03486517807168"/>
  <flow id="JF5805" begin="1500" fromJunction="J4" toJunction="J2" end="1560" vehsPerHour="14.919165331629921"/>
  <flow id="JF5806" begin="1500" fromJunction="J4" toJunction="J3" end="1560" vehsPerHour="28.44068668618101"/>
  <flow id="JF5807" begin="1560" fromJunction="J0" toJunction="J2" end="1620" vehsPerHour="100.30837525069008"/>
  <flow id="JF5808" begin="1560" fromJunction="J0" toJunction="J3" end="1620" vehsPerHour="78.89713641854809"/>
  <flow id="JF5809" begin="1560" fromJunction="J0" toJunction="J4" end="1620" vehsPerHour="52.001651311928924"/>
  <flow id="JF5810" begin="1560" fromJunction="J2" toJunction="J0" end="1620" vehsPerHour="24.81619311462809"/>
  <flow id="JF5811" begin="1560" fromJunction="J2" toJunction="J3" end="1620" vehsPerHour="135.5633132276725"/>
  <flow id="JF5812" begin="1560" fromJunction="J2" toJunction="J4" end="1620" vehsPerHour="120.45013818167395"/>
  <flow id="JF5813" begin="1560" fromJunction="J3" toJunction="J0" end="1620" vehsPerHour="45.66263334163913"/>
  <flow id="JF5814" begin="1560" fromJunction="J3" toJunction="J2" end="1620" vehsPerHour="53.66355576021708"/>
  <flow id="JF5815" begin="1560" fromJunction="J3" toJunction="J4" end="1620" vehsPerHour="49.614018683796175"/>
  <flow id="JF5816" begin="1560" fromJunction="J4" toJunction="J0" end="1620" vehsPerHour="50.684596090126966"/>
  <flow id="JF5817" begin="1560" fromJunction="J4" toJunction="J2" end="1620" vehsPerHour="11.879681682084287"/>
  <flow id="JF5818" begin="1560" fromJunction="J4" toJunction="J3" end="1620" vehsPerHour="137.35418196349679"/>
  <flow id="JF5819" begin="1620" fromJunction="J0" toJunction="J2" end="1680" vehsPerHour="37.44152402254043"/>
  <flow id="JF5820" begin="1620" fromJunction="J0" toJunction="J3" end="1680" vehsPerHour="101.29720936277077"/>
  <flow id="JF5821" begin="1620" fromJunction="J0" toJunction="J4" end="1680" vehsPerHour="62.34086228958491"/>
  <flow id="JF5822" begin="1620" fromJunction="J2" toJunction="J3" end="1680" vehsPerHour="70.46707623480951"/>
  <flow id="JF5823" begin="1620" fromJunction="J2" toJunction="J4" end="1680" vehsPerHour="59.047944779939556"/>
  <flow id="JF5824" begin="1620" fromJunction="J3" toJunction="J0" end="1680" vehsPerHour="60.454516407032145"/>
  <flow id="JF5825" begin="1620" fromJunction="J3" toJunction="J2" end="1680" vehsPerHour="91.76480183920086"/>
  <flow id="JF5826" begin="1620" fromJunction="J4" toJunction="J2" end="1680" vehsPerHour="84.22337152385235"/>
  <flow id="JF5827" begin="1620" fromJunction="J4" toJunction="J3" end="1680" vehsPerHour="40.53482932512977"/>
  <flow id="JF5828" begin="1680" fromJunction="J0" toJunction="J3" end="1740" vehsPerHour="57.3875585538514"/>
  <flow id="JF5829" begin="1680" fromJunction="J0" toJunction="J4" end="1740" vehsPerHour="25.928843756551913"/>
  <flow id="JF5830" begin="1680" fromJunction="J2" toJunction="J0" end="1740" vehsPerHour="70.95358653961144"/>
  <flow id="JF5831" begin="1680" fromJunction="J2" toJunction="J3" end="1740" vehsPerHour="20.555375654385685"/>
  <flow id="JF5832" begin="1680" fromJunction="J3" toJunction="J2" end="1740" vehsPerHour="100.50650638901516"/>
  <flow id="JF5833" begin="1680" fromJunction="J3" toJunction="J4" end="1740" vehsPerHour="37.93971984139047"/>
  <flow id="JF5834" begin="1680" fromJunction="J4" toJunction="J0" end="1740" vehsPerHour="116.95713270136982"/>
  <flow id="JF5835" begin="1740" fromJunction="J0" toJunction="J3" end="1800" vehsPerHour="13.418874422077506"/>
  <flow id="JF5836" begin="1740" fromJunction="J2" toJunction="J3" end="1800" vehsPerHour="73.48200875308756"/>
  <flow id="JF5837" begin="1740" fromJunction="J3" toJunction="J0" end="1800" vehsPerHour="134.2403816144287"/>
  <flow id="JF5838" begin="1740" fromJunction="J3" toJunction="J4" end="1800" vehsPerHour="0.9432196400939734"/>
  <flow id="JF5839" begin="1740" fromJunction="J4" toJunction="J0" end="1800" vehsPerHour="62.12841676435382"/>
  <flow id="JF5840" begin="1740" fromJunction="J4" toJunction="J2" end="1800" vehsPerHour="112.05628343959813"/>
  <flow id="JF5841" begin="1800" fromJunction="J0" toJunction="J2" end="1860" vehsPerHour="92.91075125838633"/>
  <flow id="JF5842" begin="1800" fromJunction="J2" toJunction="J0" end="1860" vehsPerHour="85.02779517284092"/>
  <flow id="JF5843" begin="1800" fromJunction="J3" toJunction="J0" end="1860" vehsPerHour="125.95768804116967"/>
  <flow id="JF5844" begin="1800" fromJunction="J3" toJunction="J2" end="1860" vehsPerHour="78.77201296368376"/>
  <flow id="JF5845" begin="1800" fromJunction="J3" toJunction="J4" end="1860" vehsPerHour="91.2987680420464"/>
  <flow id="JF5846" begin="1800" fromJunction="J4" toJunction="J0" end="1860" vehsPerHour="12.312755053604283"/>
  <flow id="JF5847" begin="1800" fromJunction="J4" toJunction="J2" end="1860" vehsPerHour="91.01449174171279"/>
  <flow id="JF5848" begin="1800" fromJunction="J4" toJunction="J3" end="1860" vehsPerHour="5.666264474395142"/>
  <flow id="JF5849" begin="1860" fromJunction="J0" toJunction="J4" end="1920" vehsPerHour="85.58468683071527"/>
  <flow id="JF5850" begin="1860" fromJunction="J2" toJunction="J0" end="1920" vehsPerHour="12.71246165853744"/>
  <flow id="JF5851" begin="1860" fromJunction="J2" toJunction="J4" end="1920" vehsPerHour="29.6397458844366"/>
  <flow id="JF5852" begin="1860" fromJunction="J3" toJunction="J0" end="1920" vehsPerHour="130.04446835220236"/>
  <flow id="JF5853" begin="1860" fromJunction="J3" toJunction="J2" end="1920" vehsPerHour="74.4768924836007"/>
  <flow id="JF5854" begin="1860" fromJunction="J3" toJunction="J4" end="1920" vehsPerHour="25.88001832193709"/>
  <flow id="JF5855" begin="1860" fromJunction="J4" toJunction="J0" end="1920" vehsPerHour="50.512610347561065"/>
  <flow id="JF5856" begin="1860" fromJunction="J4" toJunction="J2" end="1920" vehsPerHour="106.9456075723997"/>
  <flow id="JF5857" begin="1860" fromJunction="J4" toJunction="J3" end="1920" vehsPerHour="67.07132441090056"/>
  <flow id="JF5858" begin="1920" fromJunction="J0" toJunction="J2" end="1980" vehsPerHour="34.53809152102894"/>
  <flow id="JF5859" begin="1920" fromJunction="J0" toJunction="J3" end="1980" vehsPerHour="61.8749146736265"/>