<?xml version="1.0" encoding="UTF-8"?>
<routes xmlns:xsi="http://www.w3.org/2001/XMLSchema-instance" xsi:noNamespaceSchemaLocation="http://sumo.dlr.de/xsd/routes_file.xsd">
  <flow id="JF0" begin="0" fromJunction="J0" toJunction="J5" end="360" vehsPerHour="514.3758400455698" departLane="free"/>
  <flow id="JF1" begin="0" fromJunction="J3" toJunction="J0" end="360" vehsPerHour="128.12370830572135" departLane="free"/>
  <flow id="JF2" begin="0" fromJunction="J3" toJunction="J4" end="360" vehsPerHour="208.2474515572522" departLane="free"/>
  <flow id="JF3" begin="0" fromJunction="J3" toJunction="J5" end="360" vehsPerHour="192.31481223242992" departLane="free"/>
  <flow id="JF4" begin="0" fromJunction="J3" toJunction="J6" end="360" vehsPerHour="46.83093129631969" departLane="free"/>
  <flow id="JF5" begin="0" fromJunction="J4" toJunction="J3" end="360" vehsPerHour="271.27343924149073" departLane="free"/>
  <flow id="JF6" begin="0" fromJunction="J4" toJunction="J5" end="360" vehsPerHour="155.2131647701811" departLane="free"/>
  <flow id="JF7" begin="0" fromJunction="J4" toJunction="J6" end="360" vehsPerHour="8.863738761687195" departLane="free"/>
  <flow id="JF8" begin="0" fromJunction="J4" toJunction="J7" end="360" vehsPerHour="124.34212324006717" departLane="free"/>
  <flow id="JF9" begin="0" fromJunction="J5" toJunction="J3" end="360" vehsPerHour="18.11011408356534" departLane="free"/>
  <flow id="JF10" begin="0" fromJunction="J5" toJunction="J6" end="360" vehsPerHour="226.53982110951358" departLane="free"/>
  <flow id="JF11" begin="0" fromJunction="J5" toJunction="J7" end="360" vehsPerHour="151.30076191697864" departLane="free"/>
  <flow id="JF12" begin="0" fromJunction="J6" toJunction="J0" end="360" vehsPerHour="246.29577935878265" departLane="free"/>
  <flow id="JF13" begin="0" fromJunction="J6" toJunction="J4" end="360" vehsPerHour="0.7597576692419488" departLane="free"/>
  <flow id="JF14" begin="0" fromJunction="J6" toJunction="J7" end="360" vehsPerHour="224.96031790958668" departLane="free"/>
  <flow id="JF15" begin="0" fromJunction="J7" toJunction="J0" end="360" vehsPerHour="209.07623179038163" departLane="free"/>
  <flow id="JF16" begin="0" fromJunction="J7" toJunction="J4" end="360" vehsPerHour="102.1200122738261" departLane="free"/>
  <flow id="JF17" begin="0" fromJunction="J7" toJunction="J5" end="360" vehsPerHour="267.7570414312233" departLane="free"/>
  <flow id="JF18" begin="0" fromJunction="J7" toJunction="J6" end="360" vehsPerHour="175.41829322414893" departLane="free"/>
  <flow id="JF19" begin="360" fromJunction="J0" toJunction="J3" end="720" vehsPerHour="214.29565546937138" departLane="free"/>
  <flow id="JF20" begin="360" fromJunction="J0" toJunction="J4" end="720" vehsPerHour="390.3631877590769" departLane="free"/>
  <flow id="JF21" begin="360" fromJunction="J0" toJunction="J6" end="720" vehsPerHour="184.45109327274346" departLane="free"/>
  <flow id="JF22" begin="360" fromJunction="J0" toJunction="J7" end="720" vehsPerHour="232.86443653081022" departLane="free"/>
  <flow id="JF23" begin="360" fromJunction="J3" toJunction="J0" end="720" vehsPerHour="39.92574516213996" departLane="free"/>
  <flow id="JF24" begin="360" fromJunction="J3" toJunction="J5" end="720" vehsPerHour="17.398447122060254" departLane="free"/>
  <flow id="JF25" begin="360" fromJunction="J3" toJunction="J6" end="720" vehsPerHour="237.34708907972743" departLane="free"/>
  <flow id="JF26" begin="360" fromJunction="J3" toJunction="J7" end="720" vehsPerHour="112.34233089270563" departLane="free"/>
  <flow id="JF27" begin="360" fromJunction="J4" toJunction="J0" end="720" vehsPerHour="215.52396016740033" departLane="free"/>
  <flow id="JF28" begin="360" fromJunction="J4" toJunction="J3" end="720" vehsPerHour="43.63874292991095" departLane="free"/>
  <flow id="JF29" begin="360" fromJunction="J4" toJunction="J5" end="720" vehsPerHour="164.53679695256744" departLane="free"/>
  <flow id="JF30" begin="360" fromJunction="J4" toJunction="J6" end="720" vehsPerHour="145.86973718207096" departLane="free"/>
  <flow id="JF31" begin="360" fromJunction="J5" toJunction="J0" end="720" vehsPerHour="14.488091451764898" departLane="free"/>
  <flow id="JF32" begin="360" fromJunction="J5" toJunction="J3" end="720" vehsPerHour="205.3226504866392" departLane="free"/>
  <flow id="JF33" begin="360" fromJunction="J5" toJunction="J4" end="720" vehsPerHour="45.85548257065424" departLane="free"/>
  <flow id="JF34" begin="360" fromJunction="J5" toJunction="J6" end="720" vehsPerHour="143.54763010269988" departLane="free"/>
  <flow id="JF35" begin="360" fromJunction="J5" toJunction="J7" end="720" vehsPerHour="101.10736403734934" departLane="free"/>
  <flow id="JF36" begin="360" fromJunction="J6" toJunction="J0" end="720" vehsPerHour="25.401375949401572" departLane="free"/>
  <flow id="JF37" begin="360" fromJunction="J6" toJunction="J3" end="720" vehsPerHour="34.478704072546435" departLane="free"/>
  <flow id="JF38" begin="360" fromJunction="J6" toJunction="J5" end="720" vehsPerHour="12.467506889382719" departLane="free"/>
  <flow id="JF39" begin="360" fromJunction="J6" toJunction="J7" end="720" vehsPerHour="261.9772824443167" departLane="free"/>
  <flow id="JF40" begin="360" fromJunction="J7" toJunction="J3" end="720" vehsPerHour="247.76027485543904" departLane="free"/>
  <flow id="JF41" begin="360" fromJunction="J7" toJunction="J4" end="720" vehsPerHour="3.294024557154979" departLane="free"/>
  <flow id="JF42" begin="360" fromJunction="J7" toJunction="J5" end="720" vehsPerHour="147.25274466844388" departLane="free"/>
  <flow id="JF43" begin="720" fromJunction="J0" toJunction="J3" end="1080" vehsPerHour="405.3193644286653" departLane="free"/>
  <flow id="JF44" begin="720" fromJunction="J0" toJunction="J4" end="1080" vehsPerHour="169.0437937576889" departLane="free"/>
  <flow id="JF45" begin="720" fromJunction="J0" toJunction="J5" end="1080" vehsPerHour="23.371109304480118" departLane="free"/>
  <flow id="JF46" begin="720" fromJunction="J0" toJunction="J7" end="1080" vehsPerHour="37.04610790809814" departLane="free"/>
  <flow id="JF47" begin="720" fromJunction="J3" toJunction="J0" end="1080" vehsPerHour="391.31060142454794" departLane="free"/>
  <flow id="JF48" begin="720" fromJunction="J3" toJunction="J4" end="1080" vehsPerHour="39.706929509186274" departLane="free"/>
  <flow id="JF49" begin="720" fromJunction="J3" toJunction="J7" end="1080" vehsPerHour="319.7531195189027" departLane="free"/>
  <flow id="JF50" begin="720" fromJunction="J4" toJunction="J0" end="1080" vehsPerHour="146.68618144713292" departLane="free"/>
  <flow id="JF51" begin="720" fromJunction="J4" toJunction="J5" end="1080" vehsPerHour="130.7306117184571" departLane="free"/>
  <flow id="JF52" begin="720" fromJunction="J4" toJunction="J6" end="1080" vehsPerHour="98.21063253572025" departLane="free"/>
  <flow id="JF53" begin="720" fromJunction="J4" toJunction="J7" end="1080" vehsPerHour="214.30935988274067" departLane="free"/>
  <flow id="JF54" begin="720" fromJunction="J5" toJunction="J0" end="1080" vehsPerHour="40.70750612815548" departLane="free"/>
  <flow id="JF55" begin="720" fromJunction="J5" toJunction="J3" end="1080" vehsPerHour="156.53127896020845" departLane="free"/>
  <flow id="JF56" begin="720" fromJunction="J5" toJunction="J6" end="1080" vehsPerHour="88.80081556562884" departLane="free"/>
  <flow id="JF57" begin="720" fromJunction="J6" toJunction="J4" end="1080" vehsPerHour="144.92242165706412" departLane="free"/>
  <flow id="JF58" begin="720" fromJunction="J6" toJunction="J5" end="1080" vehsPerHour="113.68992261879939" departLane="free"/>
  <flow id="JF59" begin="720" fromJunction="J6" toJunction="J7" end="1080" vehsPerHour="249.45938835027093" departLane="free"/>
  <flow id="JF60" begin="720" fromJunction="J7" toJunction="J0" end="1080" vehsPerHour="103.59558152032771" departLane="free"/>
  <flow id="JF61" begin="720" fromJunction="J7" toJunction="J4" end="1080" vehsPerHour="58.2587045868536" departLane="free"/>
  <flow id="JF62" begin="1080" fromJunction="J0" toJunction="J3" end="1440" vehsPerHour="521.7526057693262" departLane="free"/>
  <flow id="JF63" begin="1080" fromJunction="J0" toJunction="J4" end="1440" vehsPerHour="15.30299144011247" departLane="free"/>
  <flow id="JF64" begin="1080" fromJunction="J0" toJunction="J6" end="1440" vehsPerHour="386.8425688885126" departLane="free"/>
  <flow id="JF65" begin="1080" fromJunction="J0" toJunction="J7" end="1440" vehsPerHour="246.76046676475116" departLane="free"/>
  <flow id="JF66" begin="1080" fromJunction="J3" toJunction="J4" end="1440" vehsPerHour="132.60868778057653" departLane="free"/>
  <flow id="JF67" begin="1080" fromJunction="J3" toJunction="J5" end="1440" vehsPerHour="201.29560152659855" departLane="free"/>
  <flow id="JF68" begin="1080" fromJunction="J3" toJunction="J6" end="1440" vehsPerHour="425.674222177493" departLane="free"/>
  <flow id="JF69" begin="1080" fromJunction="J3" toJunction="J7" end="1440" vehsPerHour="73.54135901857683" departLane="free"/>
  <flow id="JF70" begin="1080" fromJunction="J4" toJunction="J5" end="1440" vehsPerHour="36.99376006053065" departLane="free"/>
  <flow id="JF71" begin="1080" fromJunction="J4" toJunction="J6" end="1440" vehsPerHour="43.87741916136541" departLane="free"/>
  <flow id="JF72" begin="1080" fromJunction="J5" toJunction="J0" end="1440" vehsPerHour="78.26822142687416" departLane="free"/>
  <flow id="JF73" begin="1080" fromJunction="J5" toJunction="J3" end="1440" vehsPerHour="177.10068363199866" departLane="free"/>
  <flow id="JF74" begin="1080" fromJunction="J5" toJunction="J4" end="1440" vehsPerHour="225.47018502426917" departLane="free"/>
  <flow id="JF75" begin="1080" fromJunction="J5" toJunction="J6" end="1440" vehsPerHour="164.9311409833218" departLane="free"/>
  <flow id="JF76" begin="1080" fromJunction="J5" toJunction="J7" end="1440" vehsPerHour="223.24869646947965" departLane="free"/>
  <flow id="JF77" begin="1080" fromJunction="J6" toJunction="J0" end="1440" vehsPerHour="52.92927662612325" departLane="free"/>
  <flow id="JF78" begin="1080" fromJunction="J6" toJunction="J3" end="1440" vehsPerHour="43.21998644614501" departLane="free"/>
  <flow id="JF79" begin="1080" fromJunction="J6" toJunction="J4" end="1440" vehsPerHour="271.75331008651386" departLane="free"/>
  <flow id="JF80" begin="1080" fromJunction="J6" toJunction="J5" end="1440" vehsPerHour="141.66618841787027" departLane="free"/>
  <flow id="JF81" begin="1080" fromJunction="J6" toJunction="J7" end="1440" vehsPerHour="125.12749242337064" departLane="free"/>
  <flow id="JF82" begin="1080" fromJunction="J7" toJunction="J0" end="1440" vehsPerHour="16.177138473393594" departLane="free"/>
  <flow id="JF83" begin="1080" fromJunction="J7" toJunction="J3" end="1440" vehsPerHour="48.80129119678858" departLane="free"/>
  <flow id="JF84" begin="1080" fromJunction="J7" toJunction="J5" end="1440" vehsPerHour="143.80639227482638" departLane="free"/>
  <flow id="JF85" begin="1440" fromJunction="J0" toJunction="J3" end="1800" vehsPerHour="315.3768472293705" departLane="free"/>
  <flow id="JF86" begin="1440" fromJunction="J0" toJunction="J5" end="1800" vehsPerHour="410.6236740365542" departLane="free"/>
  <flow id="JF87" begin="1440" fromJunction="J0" toJunction="J6" end="1800" vehsPerHour="358.6082504110341" departLane="free"/>
  <flow id="JF88" begin="1440" fromJunction="J0" toJunction="J7" end="1800" vehsPerHour="483.95212889467103" departLane="free"/>
  <flow id="JF89" begin="1440" fromJunction="J3" toJunction="J0" end="1800" vehsPerHour="316.8805640997192" departLane="free"/>
  <flow id="JF90" begin="1440" fromJunction="J3" toJunction="J5" end="1800" vehsPerHour="527.5824464594612" departLane="free"/>
  <flow id="JF91" begin="1440" fromJunction="J3" toJunction="J6" end="1800" vehsPerHour="169.07243456497696" departLane="free"/>
  <flow id="JF92" begin="1440" fromJunction="J4" toJunction="J0" end="1800" vehsPerHour="92.63558352396089" departLane="free"/>
  <flow id="JF93" begin="1440" fromJunction="J4" toJunction="J3" end="1800" vehsPerHour="40.63088688065553" departLane="free"/>
  <flow id="JF94" begin="1440" fromJunction="J4" toJunction="J6" end="1800" vehsPerHour="63.758350689215646" departLane="free"/>
  <flow id="JF95" begin="1440" fromJunction="J4" toJunction="J7" end="1800" vehsPerHour="201.12297586531704" departLane="free"/>
  <flow id="JF96" begin="1440" fromJunction="J5" toJunction="J0" end="1800" vehsPerHour="227.980823206121" departLane="free"/>
  <flow id="JF97" begin="1440" fromJunction="J5" toJunction="J4" end="1800" vehsPerHour="126.74861583541616" departLane="free"/>
  <flow id="JF98" begin="1440" fromJunction="J5" toJunction="J7" end="1800" vehsPerHour="233.52563444427506" departLane="free"/>
  <flow id="JF99" begin="1440" fromJunction="J6" toJunction="J0" end="1800" vehsPerHour="185.5898152086686" departLane="free"/>
  <flow id="JF100" begin="1440" fromJunction="J6" toJunction="J3" end="1800" vehsPerHour="66.08263011065608" departLane="free"/>
  <flow id="JF101" begin="1440" fromJunction="J6" toJunction="J4" end="1800" vehsPerHour="150.91498956001763" departLane="free"/>
  <flow id="JF102" begin="1440" fromJunction="J6" toJunction="J5" end="1800" vehsPerHour="21.947455224812078" departLane="free"/>
  <flow id="JF103" begin="1440" fromJunction="J6" toJunction="J7" end="1800" vehsPerHour="9.96549932240122" departLane="free"/>
  <flow id="JF104" begin="1440" fromJunction="J7" toJunction="J0" end="1800" vehsPerHour="16.47099580236978" departLane="free"/>
  <flow id="JF105" begin="1440" fromJunction="J7" toJunction="J3" end="1800" vehsPerHour="217.9190489949937" departLane="free"/>
  <flow id="JF106" begin="1440" fromJunction="J7" toJunction="J4" end="1800" vehsPerHour="224.43708256218295" departLane="free"/>
  <flow id="JF107" begin="1440" fromJunction="J7" toJunction="J6" end="1800" vehsPerHour="202.53351488793717" departLane="free"/>
  <flow id="JF108" begin="1800" fromJunction="J0" toJunction="J3" end="2160" vehsPerHour="394.4005308839693" departLane="free"/>
  <flow id="JF109" begin="1800" fromJunction="J0" toJunction="J4" end="2160" vehsPerHour="368.43889595752114" departLane="free"/>
  <flow id="JF110" begin="1800" fromJunction="J0" toJunction="J5" end="2160" vehsPerHour="415.52593956467143" departLane="free"/>
  <flow id="JF111" begin="1800" fromJunction="J0" toJunction="J6" end="2160" vehsPerHour="14.203307567424957" departLane="free"/>
  <flow id="JF112" begin="1800" fromJunction="J0" toJunction="J7" end="2160" vehsPerHour="428.0835684424167" departLane="free"/>
  <flow id="JF113" begin="1800" fromJunction="J3" toJunction="J6" end="2160" vehsPerHour="5.263930500278785" departLane="free"/>
  <flow id="JF114" begin="1800" fromJunction="J3" toJunction="J7" end="2160" vehsPerHour="139.66242332182352" departLane="free"/>
  <flow id="JF115" begin="1800" fromJunction="J4" toJunction="J0" end="2160" vehsPerHour="27.38484395211038" departLane="free"/>
  <flow id="JF116" begin="1800" fromJunction="J4" toJunction="J3" end="2160" vehsPerHour="188.84184868408886" departLane="free"/>
  <flow id="JF117" begin="1800" fromJunction="J4" toJunction="J5" end="2160" vehsPerHour="208.01041527117152" departLane="free"/>
  <flow id="JF118" begin="1800" fromJunction="J4" toJunction="J7" end="2160" vehsPerHour="36.55796830149739" departLane="free"/>
  <flow id="JF119" begin="1800" fromJunction="J5" toJunction="J0" end="2160" vehsPerHour="28.85759504677871" departLane="free"/>
  <flow id="JF120" begin="1800" fromJunction="J5" toJunction="J3" end="2160" vehsPerHour="27.282134337519455" departLane="free"/>
  <flow id="JF121" begin="1800" fromJunction="J5" toJunction="J4" end="2160" vehsPerHour="135.56038589595548" departLane="free"/>
  <flow id="JF122" begin="1800" fromJunction="J5" toJunction="J6" end="2160" vehsPerHour="57.12757302379892" departLane="free"/>
  <flow id="JF123" begin="1800" fromJunction="J5" toJunction="J7" end="2160" vehsPerHour="166.19283468763436" departLane="free"/>
  <flow id="JF124" begin="1800" fromJunction="J6" toJunction="J3" end="2160" vehsPerHour="149.3961085567904" departLane="free"/>
  <flow id="JF125" begin="1800" fromJunction="J6" toJunction="J4" end="2160" vehsPerHour="267.2921450557012" departLane="free"/>
  <flow id="JF126" begin="1800" fromJunction="J6" toJunction="J5" end="2160" vehsPerHour="264.0771950940683" departLane="free"/>
  <flow id="JF127" begin="1800" fromJunction="J6" toJunction="J7" end="2160" vehsPerHour="46.63836717456823" departLane="free"/>
  <flow id="JF128" begin="1800" fromJunction="J7" toJunction="J6" end="2160" vehsPerHour="140.3389359359229" departLane="free"/>
  <flow id="JF129" begin="2160" fromJunction="J0" toJunction="J3" end="2520" vehsPerHour="270.82422342104496" departLane="free"/>
  <flow id="JF130" begin="2160" fromJunction="J0" toJunction="J4" end="2520" vehsPerHour="292.75367297860066" departLane="free"/>
  <flow id="JF131" begin="2160" fromJunction="J0" toJunction="J5" end="2520" vehsPerHour="155.39983463562942" departLane="free"/>
  <flow id="JF132" begin="2160" fromJunction="J0" toJunction="J7" end="2520" vehsPerHour="251.36622577094283" departLane="free"/>
  <flow id="JF133" begin="2160" fromJunction="J3" toJunction="J4" end="2520" vehsPerHour="329.4229489612654" departLane="free"/>
  <flow id="JF134" begin="2160" fromJunction="J3" toJunction="J5" end="2520" vehsPerHour="227.25816443783447" departLane="free"/>
  <flow id="JF135" begin="2160" fromJunction="J4" toJunction="J0" end="2520" vehsPerHour="2.2790802249984417" departLane="free"/>
  <flow id="JF136" begin="2160" fromJunction="J4" toJunction="J3" end="2520" vehsPerHour="76.90705262213056" departLane="free"/>
  <flow id="JF137" begin="2160" fromJunction="J4" toJunction="J5" end="2520" vehsPerHour="139.72683901162222" departLane="free"/>
  <flow id="JF138" begin="2160" fromJunction="J4" toJunction="J7" end="2520" vehsPerHour="113.0254938669881" departLane="free"/>
  <flow id="JF139" begin="2160" fromJunction="J5" toJunction="J3" end="2520" vehsPerHour="177.5774331031353" departLane="free"/>
  <flow id="JF140" begin="2160" fromJunction="J5" toJunction="J4" end="2520" vehsPerHour="83.251899077923" departLane="free"/>
  <flow id="JF141" begin="2160" fromJunction="J5" toJunction="J6" end="2520" vehsPerHour="71.80530984329106" departLane="free"/>
  <flow id="JF142" begin="2160" fromJunction="J5" toJunction="J7" end="2520" vehsPerHour="48.201557572521615" departLane="free"/>
  <flow id="JF143" begin="2160" fromJunction="J6" toJunction="J3" end="2520" vehsPerHour="261.1216007292774" departLane="free"/>
  <flow id="JF144" begin="2160" fromJunction="J6" toJunction="J4" end="2520" vehsPerHour="202.84454429576382" departLane="free"/>
  <flow id="JF145" begin="2160" fromJunction="J7" toJunction="J3" end="2520" vehsPerHour="141.05416014662632" departLane="free"/>
  <flow id="JF146" begin="2160" fromJunction="J7" toJunction="J6" end="2520" vehsPerHour="220.46890160358092" departLane="free"/>
  <flow id="JF147" begin="2520" fromJunction="J0" toJunction="J3" end="2880" vehsPerHour="542.6461693647809" departLane="free"/>
  <flow id="JF148" begin="2520" fromJunction="J0" toJunction="J4" end="2880" vehsPerHour="415.27657324008834" departLane="free"/>
  <flow id="JF149" begin="2520" fromJunction="J0" toJunction="J5" end="2880" vehsPerHour="155.10640692666902" departLane="free"/>
  <flow id="JF150" begin="2520" fromJunction="J0" toJunction="J6" end="2880" vehsPerHour="28.132901793045402" departLane="free"/>
  <flow id="JF151" begin="2520" fromJunction="J0" toJunction="J7" end="2880" vehsPerHour="188.68558794414173" departLane="free"/>
  <flow id="JF152" begin="2520" fromJunction="J3" toJunction="J5" end="2880" vehsPerHour="329.2400919064102" departLane="free"/>
  <flow id="JF153" begin="2520" fromJunction="J3" toJunction="J6" end="2880" vehsPerHour="253.66946381926107" departLane="free"/>
  <flow id="JF154" begin="2520" fromJunction="J4" toJunction="J0" end="2880" vehsPerHour="104.58282908197201" departLane="free"/>
  <flow id="JF155" begin="2520" fromJunction="J4" toJunction="J3" end="2880" vehsPerHour="239.0509650175218" departLane="free"/>
  <flow id="JF156" begin="2520" fromJunction="J4" toJunction="J5" end="2880" vehsPerHour="161.77779017597697" departLane="free"/>
  <flow id="JF157" begin="2520" fromJunction="J4" toJunction="J6" end="2880" vehsPerHour="31.637658356951405" departLane="free"/>
  <flow id="JF158" begin="2520" fromJunction="J5" toJunction="J0" end="2880" vehsPerHour="205.42432310984438" departLane="free"/>
  <flow id="JF159" begin="2520" fromJunction="J5" toJunction="J3" end="2880" vehsPerHour="79.12352614771925" departLane="free"/>
  <flow id="JF160" begin="2520" fromJunction="J5" toJunction="J6" end="2880" vehsPerHour="14.930764133293364" departLane="free"/>
  <flow id="JF161" begin="2520" fromJunction="J6" toJunction="J0" end="2880" vehsPerHour="35.359917316920786" departLane="free"/>
  <flow id="JF162" begin="2520" fromJunction="J6" toJunction="J3" end="2880" vehsPerHour="253.5113201761229" departLane="free"/>
  <flow id="JF163" begin="2520" fromJunction="J6" toJunction="J4" end="2880" vehsPerHour="78.58926029830113" departLane="free"/>
  <flow id="JF164" begin="2520" fromJunction="J6" toJunction="J5" end="2880" vehsPerHour="58.43170029788236" departLane="free"/>
  <flow id="JF165" begin="2520" fromJunction="J6" toJunction="J7" end="2880" vehsPerHour="35.08208637480584" departLane="free"/>
  <flow id="JF166" begin="2520" fromJunction="J7" toJunction="J0" end="2880" vehsPerHour="72.75702989834971" departLane="free"/>
  <flow id="JF167" begin="2520" fromJunction="J7" toJunction="J3" end="2880" vehsPerHour="221.55307743226095" departLane="free"/>
  <flow id="JF168" begin="2520" fromJunction="J7" toJunction="J4" end="2880" vehsPerHour="71.17768024399535" departLane="free"/>
  <flow id="JF169" begin="2520" fromJunction="J7" toJunction="J5" end="2880" vehsPerHour="260.7413786133522" departLane="free"/>
  <flow id="JF170" begin="2880" fromJunction="J0" toJunction="J3" end="3240" vehsPerHour="273.7915824809287" departLane="free"/>
  <flow id="JF171" begin="2880" fromJunction="J0" toJunction="J4" end="3240" vehsPerHour="274.9581066216778" departLane="free"/>
  <flow id="JF172" begin="2880" fromJunction="J0" toJunction="J5" end="3240" vehsPerHour="66.29051654427715" departLane="free"/>
  <flow id="JF173" begin="2880" fromJunction="J0" toJunction="J6" end="3240" vehsPerHour="481.6133400506019" departLane="free"/>
  <flow id="JF174" begin="2880" fromJunction="J3" toJunction="J0" end="3240" vehsPerHour="320.8032716102882" departLane="free"/>
  <flow id="JF175" begin="2880" fromJunction="J3" toJunction="J4" end="3240" vehsPerHour="443.3838330344982" departLane="free"/>
  <flow id="JF176" begin="2880" fromJunction="J3" toJunction="J5" end="3240" vehsPerHour="324.3324578473112" departLane="free"/>
  <flow id="JF177" begin="2880" fromJunction="J3" toJunction="J6" end="3240" vehsPerHour="385.6556795183996" departLane="free"/>
  <flow id="JF178" begin="2880" fromJunction="J4" toJunction="J0" end="3240" vehsPerHour="0.8579967639885504" departLane="free"/>
  <flow id="JF179" begin="2880" fromJunction="J4" toJunction="J3" end="3240" vehsPerHour="128.983698971442" departLane="free"/>
  <flow id="JF180" begin="2880" fromJunction="J4" toJunction="J5" end="3240" vehsPerHour="173.97057583771277" departLane="free"/>
  <flow id="JF181" begin="2880" fromJunction="J4" toJunction="J6" end="3240" vehsPerHour="133.78675614192755" departLane="free"/>
  <flow id="JF182" begin="2880" fromJunction="J5" toJunction="J3" end="3240" vehsPerHour="197.41383725023942" departLane="free"/>
  <flow id="JF183" begin="2880" fromJunction="J5" toJunction="J4" end="3240" vehsPerHour="56.5239285771188" departLane="free"/>
  <flow id="JF184" begin="2880" fromJunction="J5" toJunction="J6" end="3240" vehsPerHour="102.64898732283964" departLane="free"/>
  <flow id="JF185" begin="2880" fromJunction="J5" toJunction="J7" end="3240" vehsPerHour="174.3565330065553" departLane="free"/>
  <flow id="JF186" begin="2880" fromJunction="J6" toJunction="J0" end="3240" vehsPerHour="124.41177754965389" departLane="free"/>
  <flow id="JF187" begin="2880" fromJunction="J6" toJunction="J4" end="3240" vehsPerHour="229.72922707669676" departLane="free"/>
  <flow id="JF188" begin="2880" fromJunction="J6" toJunction="J7" end="3240" vehsPerHour="25.892202181515884" departLane="free"/>
  <flow id="JF189" begin="2880" fromJunction="J7" toJunction="J3" end="3240" vehsPerHour="72.7223945453493" departLane="free"/>
  <flow id="JF190" begin="2880" fromJunction="J7" toJunction="J4" end="3240" vehsPerHour="54.88091261998468" departLane="free"/>
  <flow id="JF191" begin="2880" fromJunction="J7" toJunction="J6" end="3240" vehsPerHour="123.02433847228399" departLane="free"/>
  <flow id="JF192" begin="3240" fromJunction="J0" toJunction="J4" end="3600" vehsPerHour="16.067990177290895" departLane="free"/>
  <flow id="JF193" begin="3240" fromJunction="J0" toJunction="J6" end="3600" vehsPerHour="108.46251350830129" departLane="free"/>
  <flow id="JF194" begin="3240" fromJunction="J0" toJunction="J7" end="3600" vehsPerHour="185.52893492284304" departLane="free"/>
  <flow id="JF195" begin="3240" fromJunction="J3" toJunction="J4" end="3600" vehsPerHour="424.97518293869666" departLane="free"/>
  <flow id="JF196" begin="3240" fromJunction="J3" toJunction="J5" end="3600" vehsPerHour="483.8174819986922" departLane="free"/>
  <flow id="JF197" begin="3240" fromJunction="J4" toJunction="J3" end="3600" vehsPerHour="156.6551347296119" departLane="free"/>
  <flow id="JF198" begin="3240" fromJunction="J4" toJunction="J5" end="3600" vehsPerHour="175.87196164614886" departLane="free"/>
  <flow id="JF199" begin="3240" fromJunction="J4" toJunction="J6" end="3600" vehsPerHour="18.78923805729244" departLane="free"/>
  <flow id="JF200" begin="3240" fromJunction="J4" toJunction="J7" end="3600" vehsPerHour="119.22328045214446" departLane="free"/>
  <flow id="JF201" begin="3240" fromJunction="J5" toJunction="J0" end="3600" vehsPerHour="82.60123436069613" departLane="free"/>
  <flow id="JF202" begin="3240" fromJunction="J5" toJunction="J3" end="3600" vehsPerHour="89.51128356939243" departLane="free"/>
  <flow id="JF203" begin="3240" fromJunction="J5" toJunction="J4" end="3600" vehsPerHour="18.752211652081233" departLane="free"/>
  <flow id="JF204" begin="3240" fromJunction="J5" toJunction="J6" end="3600" vehsPerHour="104.91671520144457" departLane="free"/>
  <flow id="JF205" begin="3240" fromJunction="J5" toJunction="J7" end="3600" vehsPerHour="133.42659690297208" departLane="free"/>
  <flow id="JF206" begin="3240" fromJunction="J6" toJunction="J0" end="3600" vehsPerHour="265.8789849147283" departLane="free"/>
  <flow id="JF207" begin="3240" fromJunction="J6" toJunction="J3" end="3600" vehsPerHour="167.10697626124005" departLane="free"/>
  <flow id="JF208" begin="3240" fromJunction="J7" toJunction="J0" end="3600" vehsPerHour="49.11984829058999" departLane="free"/>
  <flow id="JF209" begin="3240" fromJunction="J7" toJunction="J4" end="3600" vehsPerHour="31.404285265101315" departLane="free"/>
  <flow id="JF210" begin="3240" fromJunction="J7" toJunction="J5" end="3600" vehsPerHour="168.40549024600048" departLane="free"/>
  <flow id="JF211" begin="3240" fromJunction="J7" toJunction="J6" end="3600" vehsPerHour="6.868761026439288" departLane="free"/>
  <flow id="JF212" begin="3600" fromJunction="J0" toJunction="J3" end="3960" vehsPerHour="462.7726768108459" departLane="free"/>
  <flow id="JF213" begin="3600" fromJunction="J0" toJunction="J4" end="3960" vehsPerHour="135.58959945399602" departLane="free"/>
  <flow id="JF214" begin="3600" fromJunction="J0" toJunction="J7" end="3960" vehsPerHour="286.74452064894825" departLane="free"/>
  <flow id="JF215" begin="3600" fromJunction="J3" toJunction="J0" end="3960" vehsPerHour="281.92223852010864" departLane="free"/>
  <flow id="JF216" begin="3600" fromJunction="J3" toJunction="J4" end="3960" vehsPerHour="194.9283743175361" departLane="free"/>
  <flow id="JF217" begin="3600" fromJunction="J3" toJunction="J5" end="3960" vehsPerHour="212.40063325007446" departLane="free"/>
  <flow id="JF218" begin="3600" fromJunction="J3" toJunction="J6" end="3960" vehsPerHour="168.58588713606895" departLane="free"/>
  <flow id="JF219" begin="3600" fromJunction="J3" toJunction="J7" end="3960" vehsPerHour="275.1685076941593" departLane="free"/>
  <flow id="JF220" begin="3600" fromJunction="J4" toJunction="J3" end="3960" vehsPerHour="249.27265058338207" departLane="free"/>
  <flow id="JF221" begin="3600" fromJunction="J4" toJunction="J7" end="3960" vehsPerHour="219.24369494993482" departLane="free"/>
  <flow id="JF222" begin="3600" fromJunction="J5" toJunction="J0" end="3960" vehsPerHour="240.87182621756892" departLane="free"/>
  <flow id="JF223" begin="3600" fromJunction="J5" toJunction="J4" end="3960" vehsPerHour="213.4821745414186" departLane="free"/>
  <flow id="JF224" begin="3600" fromJunction="J5" toJunction="J7" end="3960" vehsPerHour="20.191341403942072" departLane="free"/>
  <flow id="JF225" begin="3600" fromJunction="J6" toJunction="J0" end="3960" vehsPerHour="227.44124709320403" departLane="free"/>
  <flow id="JF226" begin="3600" fromJunction="J6" toJunction="J5" end="3960" vehsPerHour="125.70881611363485" departLane="free"/>
  <flow id="JF227" begin="3600" fromJunction="J6" toJunction="J7" end="3960" vehsPerHour="127.80534633891146" departLane="free"/>
  <flow id="JF228" begin="3600" fromJunction="J7" toJunction="J0" end="3960" vehsPerHour="187.50493704575732" departLane="free"/>
  <flow id="JF229" begin="3600" fromJunction="J7" toJunction="J3" end="3960" vehsPerHour="40.860558179437895" departLane="free"/>
  <flow id="JF230" begin="3600" fromJunction="J7" toJunction="J4" end="3960" vehsPerHour="43.04214058798607" departLane="free"/>
  <flow id="JF231" begin="3600" fromJunction="J7" toJunction="J5" end="3960" vehsPerHour="183.01820234367398" departLane="free"/>