<?xml version="1.0" encoding="UTF-8"?>
<routes xmlns:xsi="http://www.w3.org/2001/XMLSchema-instance" xsi:noNamespaceSchemaLocation="http://sumo.dlr.de/xsd/routes_file.xsd">
  <flow id="JF0" begin="0" fromJunction="J0" toJunction="J3" end="360" vehsPerHour="85.49167266953793" departLane="free" arrivalSpeed="0.0"/>
  <flow id="JF1" begin="0" fromJunction="J0" toJunction="J5" end="360" vehsPerHour="137.08919365465206" departLane="free" arrivalSpeed="0.0"/>
  <flow id="JF2" begin="0" fromJunction="J0" toJunction="J6" end="360" vehsPerHour="97.966049168757" departLane="free" arrivalSpeed="0.0"/>
  <flow id="JF3" begin="0" fromJunction="J0" toJunction="J7" end="360" vehsPerHour="31.178947831727776" departLane="free" arrivalSpeed="0.0"/>
  <flow id="JF4" begin="0" fromJunction="J3" toJunction="J0" end="360" vehsPerHour="73.64854873404109" departLane="free" arrivalSpeed="0.0"/>
  <flow id="JF5" begin="0" fromJunction="J3" toJunction="J4" end="360" vehsPerHour="62.884011449819205" departLane="free" arrivalSpeed="0.0"/>
  <flow id="JF6" begin="0" fromJunction="J3" toJunction="J5" end="360" vehsPerHour="125.20288662079864" departLane="free" arrivalSpeed="0.0"/>
  <flow id="JF7" begin="0" fromJunction="J3" toJunction="J7" end="360" vehsPerHour="136.8915747361813" departLane="free" arrivalSpeed="0.0"/>
  <flow id="JF8" begin="0" fromJunction="J4" toJunction="J6" end="360" vehsPerHour="32.788278740102484" departLane="free" arrivalSpeed="0.0"/>
  <flow id="JF9" begin="0" fromJunction="J4" toJunction="J7" end="360" vehsPerHour="30.43891152984968" departLane="free" arrivalSpeed="0.0"/>
  <flow id="JF10" begin="0" fromJunction="J5" toJunction="J0" end="360" vehsPerHour="20.052766477580455" departLane="free" arrivalSpeed="0.0"/>
  <flow id="JF11" begin="0" fromJunction="J5" toJunction="J3" end="360" vehsPerHour="1.9018801825901304" departLane="free" arrivalSpeed="0.0"/>
  <flow id="JF12" begin="0" fromJunction="J5" toJunction="J4" end="360" vehsPerHour="18.516938055325788" departLane="free" arrivalSpeed="0.0"/>
  <flow id="JF13" begin="0" fromJunction="J5" toJunction="J6" end="360" vehsPerHour="19.853923376033162" departLane="free" arrivalSpeed="0.0"/>
  <flow id="JF14" begin="0" fromJunction="J5" toJunction="J7" end="360" vehsPerHour="56.44512514688724" departLane="free" arrivalSpeed="0.0"/>
  <flow id="JF15" begin="0" fromJunction="J6" toJunction="J0" end="360" vehsPerHour="19.79067558840767" departLane="free" arrivalSpeed="0.0"/>
  <flow id="JF16" begin="0" fromJunction="J6" toJunction="J3" end="360" vehsPerHour="20.070503794856144" departLane="free" arrivalSpeed="0.0"/>
  <flow id="JF17" begin="0" fromJunction="J6" toJunction="J4" end="360" vehsPerHour="3.526632300241872" departLane="free" arrivalSpeed="0.0"/>
  <flow id="JF18" begin="0" fromJunction="J6" toJunction="J7" end="360" vehsPerHour="12.511604518587513" departLane="free" arrivalSpeed="0.0"/>
  <flow id="JF19" begin="0" fromJunction="J7" toJunction="J0" end="360" vehsPerHour="34.89633510427919" departLane="free" arrivalSpeed="0.0"/>
  <flow id="JF20" begin="0" fromJunction="J7" toJunction="J3" end="360" vehsPerHour="30.71703597357223" departLane="free" arrivalSpeed="0.0"/>
  <flow id="JF21" begin="0" fromJunction="J7" toJunction="J6" end="360" vehsPerHour="59.857998385936696" departLane="free" arrivalSpeed="0.0"/>
  <flow id="JF22" begin="360" fromJunction="J0" toJunction="J5" end="720" vehsPerHour="37.09313767859623" departLane="free" arrivalSpeed="0.0"/>
  <flow id="JF23" begin="360" fromJunction="J0" toJunction="J6" end="720" vehsPerHour="91.92344570677761" departLane="free" arrivalSpeed="0.0"/>
  <flow id="JF24" begin="360" fromJunction="J0" toJunction="J7" end="720" vehsPerHour="28.007447723696707" departLane="free" arrivalSpeed="0.0"/>
  <flow id="JF25" begin="360" fromJunction="J3" toJunction="J0" end="720" vehsPerHour="25.77730187118183" departLane="free" arrivalSpeed="0.0"/>
  <flow id="JF26" begin="360" fromJunction="J3" toJunction="J4" end="720" vehsPerHour="95.79415488225544" departLane="free" arrivalSpeed="0.0"/>
  <flow id="JF27" begin="360" fromJunction="J3" toJunction="J6" end="720" vehsPerHour="39.66290061991092" departLane="free" arrivalSpeed="0.0"/>
  <flow id="JF28" begin="360" fromJunction="J3" toJunction="J7" end="720" vehsPerHour="102.554494983997" departLane="free" arrivalSpeed="0.0"/>
  <flow id="JF29" begin="360" fromJunction="J4" toJunction="J3" end="720" vehsPerHour="44.28457059811991" departLane="free" arrivalSpeed="0.0"/>
  <flow id="JF30" begin="360" fromJunction="J4" toJunction="J7" end="720" vehsPerHour="53.20537066972233" departLane="free" arrivalSpeed="0.0"/>
  <flow id="JF31" begin="360" fromJunction="J5" toJunction="J0" end="720" vehsPerHour="10.460061178281332" departLane="free" arrivalSpeed="0.0"/>
  <flow id="JF32" begin="360" fromJunction="J5" toJunction="J3" end="720" vehsPerHour="0.34418434119905267" departLane="free" arrivalSpeed="0.0"/>
  <flow id="JF33" begin="360" fromJunction="J5" toJunction="J7" end="720" vehsPerHour="45.29524700700379" departLane="free" arrivalSpeed="0.0"/>
  <flow id="JF34" begin="360" fromJunction="J6" toJunction="J3" end="720" vehsPerHour="30.676597624093105" departLane="free" arrivalSpeed="0.0"/>
  <flow id="JF35" begin="360" fromJunction="J6" toJunction="J4" end="720" vehsPerHour="57.17077331673602" departLane="free" arrivalSpeed="0.0"/>
  <flow id="JF36" begin="360" fromJunction="J6" toJunction="J5" end="720" vehsPerHour="38.844256955729065" departLane="free" arrivalSpeed="0.0"/>
  <flow id="JF37" begin="360" fromJunction="J6" toJunction="J7" end="720" vehsPerHour="12.56584867959852" departLane="free" arrivalSpeed="0.0"/>
  <flow id="JF38" begin="360" fromJunction="J7" toJunction="J4" end="720" vehsPerHour="17.79135548107836" departLane="free" arrivalSpeed="0.0"/>
  <flow id="JF39" begin="360" fromJunction="J7" toJunction="J5" end="720" vehsPerHour="27.9244893816338" departLane="free" arrivalSpeed="0.0"/>
  <flow id="JF40" begin="720" fromJunction="J0" toJunction="J3" end="1080" vehsPerHour="49.584647216376695" departLane="free" arrivalSpeed="0.0"/>
  <flow id="JF41" begin="720" fromJunction="J0" toJunction="J4" end="1080" vehsPerHour="56.65186720047353" departLane="free" arrivalSpeed="0.0"/>
  <flow id="JF42" begin="720" fromJunction="J0" toJunction="J5" end="1080" vehsPerHour="79.11474176397479" departLane="free" arrivalSpeed="0.0"/>
  <flow id="JF43" begin="720" fromJunction="J0" toJunction="J6" end="1080" vehsPerHour="48.069835052510456" departLane="free" arrivalSpeed="0.0"/>
  <flow id="JF44" begin="720" fromJunction="J3" toJunction="J0" end="1080" vehsPerHour="41.74617646844339" departLane="free" arrivalSpeed="0.0"/>
  <flow id="JF45" begin="720" fromJunction="J3" toJunction="J5" end="1080" vehsPerHour="92.91894617503009" departLane="free" arrivalSpeed="0.0"/>
  <flow id="JF46" begin="720" fromJunction="J3" toJunction="J6" end="1080" vehsPerHour="16.78378083952266" departLane="free" arrivalSpeed="0.0"/>
  <flow id="JF47" begin="720" fromJunction="J4" toJunction="J0" end="1080" vehsPerHour="62.73858277705367" departLane="free" arrivalSpeed="0.0"/>
  <flow id="JF48" begin="720" fromJunction="J4" toJunction="J7" end="1080" vehsPerHour="36.55172633811103" departLane="free" arrivalSpeed="0.0"/>
  <flow id="JF49" begin="720" fromJunction="J5" toJunction="J0" end="1080" vehsPerHour="9.11012994280968" departLane="free" arrivalSpeed="0.0"/>
  <flow id="JF50" begin="720" fromJunction="J5" toJunction="J3" end="1080" vehsPerHour="42.29512610796453" departLane="free" arrivalSpeed="0.0"/>
  <flow id="JF51" begin="720" fromJunction="J5" toJunction="J4" end="1080" vehsPerHour="27.987405133679463" departLane="free" arrivalSpeed="0.0"/>
  <flow id="JF52" begin="720" fromJunction="J5" toJunction="J7" end="1080" vehsPerHour="37.09505105045654" departLane="free" arrivalSpeed="0.0"/>
  <flow id="JF53" begin="720" fromJunction="J6" toJunction="J0" end="1080" vehsPerHour="61.796791067847494" departLane="free" arrivalSpeed="0.0"/>
  <flow id="JF54" begin="720" fromJunction="J6" toJunction="J3" end="1080" vehsPerHour="47.458380208799774" departLane="free" arrivalSpeed="0.0"/>
  <flow id="JF55" begin="720" fromJunction="J6" toJunction="J5" end="1080" vehsPerHour="34.07749074961702" departLane="free" arrivalSpeed="0.0"/>
  <flow id="JF56" begin="720" fromJunction="J6" toJunction="J7" end="1080" vehsPerHour="55.357758218452965" departLane="free" arrivalSpeed="0.0"/>
  <flow id="JF57" begin="720" fromJunction="J7" toJunction="J0" end="1080" vehsPerHour="27.791118722766225" departLane="free" arrivalSpeed="0.0"/>
  <flow id="JF58" begin="720" fromJunction="J7" toJunction="J3" end="1080" vehsPerHour="38.91416841020851" departLane="free" arrivalSpeed="0.0"/>
  <flow id="JF59" begin="720" fromJunction="J7" toJunction="J4" end="1080" vehsPerHour="16.980718758886283" departLane="free" arrivalSpeed="0.0"/>
  <flow id="JF60" begin="720" fromJunction="J7" toJunction="J5" end="1080" vehsPerHour="39.38659748492139" departLane="free" arrivalSpeed="0.0"/>
  <flow id="JF61" begin="720" fromJunction="J7" toJunction="J6" end="1080" vehsPerHour="66.5176538132017" departLane="free" arrivalSpeed="0.0"/>
  <flow id="JF62" begin="1080" fromJunction="J0" toJunction="J4" end="1440" vehsPerHour="61.034218531355116" departLane="free" arrivalSpeed="0.0"/>
  <flow id="JF63" begin="1080" fromJunction="J0" toJunction="J5" end="1440" vehsPerHour="27.64190872002801" departLane="free" arrivalSpeed="0.0"/>
  <flow id="JF64" begin="1080" fromJunction="J0" toJunction="J6" end="1440" vehsPerHour="40.87745588497664" departLane="free" arrivalSpeed="0.0"/>
  <flow id="JF65" begin="1080" fromJunction="J0" toJunction="J7" end="1440" vehsPerHour="111.30053765342595" departLane="free" arrivalSpeed="0.0"/>
  <flow id="JF66" begin="1080" fromJunction="J3" toJunction="J0" end="1440" vehsPerHour="20.35764397527296" departLane="free" arrivalSpeed="0.0"/>
  <flow id="JF67" begin="1080" fromJunction="J3" toJunction="J5" end="1440" vehsPerHour="76.49366833685868" departLane="free" arrivalSpeed="0.0"/>
  <flow id="JF68" begin="1080" fromJunction="J3" toJunction="J6" end="1440" vehsPerHour="28.81004730378962" departLane="free" arrivalSpeed="0.0"/>
  <flow id="JF69" begin="1080" fromJunction="J3" toJunction="J7" end="1440" vehsPerHour="20.537027909964234" departLane="free" arrivalSpeed="0.0"/>
  <flow id="JF70" begin="1080" fromJunction="J4" toJunction="J0" end="1440" vehsPerHour="6.214182149088059" departLane="free" arrivalSpeed="0.0"/>
  <flow id="JF71" begin="1080" fromJunction="J4" toJunction="J3" end="1440" vehsPerHour="34.853755619234306" departLane="free" arrivalSpeed="0.0"/>
  <flow id="JF72" begin="1080" fromJunction="J4" toJunction="J5" end="1440" vehsPerHour="41.47898315841486" departLane="free" arrivalSpeed="0.0"/>
  <flow id="JF73" begin="1080" fromJunction="J4" toJunction="J6" end="1440" vehsPerHour="11.819568269137998" departLane="free" arrivalSpeed="0.0"/>
  <flow id="JF74" begin="1080" fromJunction="J4" toJunction="J7" end="1440" vehsPerHour="30.455242772077455" departLane="free" arrivalSpeed="0.0"/>
  <flow id="JF75" begin="1080" fromJunction="J5" toJunction="J0" end="1440" vehsPerHour="19.410524294956556" departLane="free" arrivalSpeed="0.0"/>
  <flow id="JF76" begin="1080" fromJunction="J5" toJunction="J6" end="1440" vehsPerHour="36.896664977231275" departLane="free" arrivalSpeed="0.0"/>
  <flow id="JF77" begin="1080" fromJunction="J6" toJunction="J0" end="1440" vehsPerHour="65.14078348209657" departLane="free" arrivalSpeed="0.0"/>
  <flow id="JF78" begin="1080" fromJunction="J6" toJunction="J3" end="1440" vehsPerHour="43.289024925816236" departLane="free" arrivalSpeed="0.0"/>
  <flow id="JF79" begin="1080" fromJunction="J6" toJunction="J4" end="1440" vehsPerHour="33.40068493078794" departLane="free" arrivalSpeed="0.0"/>
  <flow id="JF80" begin="1080" fromJunction="J6" toJunction="J7" end="1440" vehsPerHour="62.98505063625399" departLane="free" arrivalSpeed="0.0"/>
  <flow id="JF81" begin="1080" fromJunction="J7" toJunction="J0" end="1440" vehsPerHour="43.42912695992419" departLane="free" arrivalSpeed="0.0"/>
  <flow id="JF82" begin="1080" fromJunction="J7" toJunction="J3" end="1440" vehsPerHour="38.50096554769744" departLane="free" arrivalSpeed="0.0"/>
  <flow id="JF83" begin="1080" fromJunction="J7" toJunction="J4" end="1440" vehsPerHour="5.121504446046717" departLane="free" arrivalSpeed="0.0"/>
  <flow id="JF84" begin="1080" fromJunction="J7" toJunction="J5" end="1440" vehsPerHour="31.629596549912115" departLane="free" arrivalSpeed="0.0"/>
  <flow id="JF85" begin="1080" fromJunction="J7" toJunction="J6" end="1440" vehsPerHour="39.67975291653827" departLane="free" arrivalSpeed="0.0"/>
  <flow id="JF86" begin="1440" fromJunction="J0" toJunction="J3" end="1800" vehsPerHour="69.58195163723781" departLane="free" arrivalSpeed="0.0"/>
  <flow id="JF87" begin="1440" fromJunction="J0" toJunction="J4" end="1800" vehsPerHour="98.80933351403255" departLane="free" arrivalSpeed="0.0"/>
  <flow id="JF88" begin="1440" fromJunction="J0" toJunction="J5" end="1800" vehsPerHour="5.620093757291406" departLane="free" arrivalSpeed="0.0"/>
  <flow id="JF89" begin="1440" fromJunction="J0" toJunction="J6" end="1800" vehsPerHour="86.82593177305287" departLane="free" arrivalSpeed="0.0"/>
  <flow id="JF90" begin="1440" fromJunction="J0" toJunction="J7" end="1800" vehsPerHour="93.02706325750147" departLane="free" arrivalSpeed="0.0"/>
  <flow id="JF91" begin="1440" fromJunction="J3" toJunction="J0" end="1800" vehsPerHour="121.7647870215081" departLane="free" arrivalSpeed="0.0"/>
  <flow id="JF92" begin="1440" fromJunction="J3" toJunction="J5" end="1800" vehsPerHour="105.96292959726352" departLane="free" arrivalSpeed="0.0"/>
  <flow id="JF93" begin="1440" fromJunction="J3" toJunction="J7" end="1800" vehsPerHour="119.76755561738675" departLane="free" arrivalSpeed="0.0"/>
  <flow id="JF94" begin="1440" fromJunction="J4" toJunction="J0" end="1800" vehsPerHour="35.38122201835302" departLane="free" arrivalSpeed="0.0"/>
  <flow id="JF95" begin="1440" fromJunction="J4" toJunction="J5" end="1800" vehsPerHour="45.859179428718086" departLane="free" arrivalSpeed="0.0"/>
  <flow id="JF96" begin="1440" fromJunction="J4" toJunction="J6" end="1800" vehsPerHour="48.331457862521" departLane="free" arrivalSpeed="0.0"/>
  <flow id="JF97" begin="1440" fromJunction="J4" toJunction="J7" end="1800" vehsPerHour="35.857513425405514" departLane="free" arrivalSpeed="0.0"/>
  <flow id="JF98" begin="1440" fromJunction="J5" toJunction="J0" end="1800" vehsPerHour="25.791706881548997" departLane="free" arrivalSpeed="0.0"/>
  <flow id="JF99" begin="1440" fromJunction="J5" toJunction="J3" end="1800" vehsPerHour="19.772094668888137" departLane="free" arrivalSpeed="0.0"/>
  <flow id="JF100" begin="1440" fromJunction="J5" toJunction="J4" end="1800" vehsPerHour="67.62668499589306" departLane="free" arrivalSpeed="0.0"/>
  <flow id="JF101" begin="1440" fromJunction="J5" toJunction="J6" end="1800" vehsPerHour="10.092318564674823" departLane="free" arrivalSpeed="0.0"/>
  <flow id="JF102" begin="1440" fromJunction="J5" toJunction="J7" end="1800" vehsPerHour="51.62823332574872" departLane="free" arrivalSpeed="0.0"/>
  <flow id="JF103" begin="1440" fromJunction="J6" toJunction="J0" end="1800" vehsPerHour="62.371347690693796" departLane="free" arrivalSpeed="0.0"/>
  <flow id="JF104" begin="1440" fromJunction="J6" toJunction="J3" end="1800" vehsPerHour="47.072189948429354" departLane="free" arrivalSpeed="0.0"/>
  <flow id="JF105" begin="1440" fromJunction="J6" toJunction="J7" end="1800" vehsPerHour="13.902114235362696" departLane="free" arrivalSpeed="0.0"/>
  <flow id="JF106" begin="1440" fromJunction="J7" toJunction="J3" end="1800" vehsPerHour="7.85234062877085" departLane="free" arrivalSpeed="0.0"/>
  <flow id="JF107" begin="1440" fromJunction="J7" toJunction="J4" end="1800" vehsPerHour="59.13331978151391" departLane="free" arrivalSpeed="0.0"/>
  <flow id="JF108" begin="1440" fromJunction="J7" toJunction="J5" end="1800" vehsPerHour="63.58114449866663" departLane="free" arrivalSpeed="0.0"/>
  <flow id="JF109" begin="1440" fromJunction="J7" toJunction="J6" end="1800" vehsPerHour="48.61458011470799" departLane="free" arrivalSpeed="0.0"/>
  <flow id="JF110" begin="1800" fromJunction="J0" toJunction="J3" end="2160" vehsPerHour="54.50171659061376" departLane="free" arrivalSpeed="0.0"/>
  <flow id="JF111" begin="1800" fromJunction="J0" toJunction="J4" end="2160" vehsPerHour="123.82242381769757" departLane="free" arrivalSpeed="0.0"/>
  <flow id="JF112" begin="1800" fromJunction="J0" toJunction="J5" end="2160" vehsPerHour="119.57796204184227" departLane="free" arrivalSpeed="0.0"/>
  <flow id="JF113" begin="1800" fromJunction="J0" toJunction="J6" end="2160" vehsPerHour="42.269986015894375" departLane="free" arrivalSpeed="0.0"/>
  <flow id="JF114" begin="1800" fromJunction="J0" toJunction="J7" end="2160" vehsPerHour="92.83827926351583" departLane="free" arrivalSpeed="0.0"/>
  <flow id="JF115" begin="1800" fromJunction="J3" toJunction="J0" end="2160" vehsPerHour="3.7666872884171547" departLane="free" arrivalSpeed="0.0"/>
  <flow id="JF116" begin="1800" fromJunction="J3" toJunction="J4" end="2160" vehsPerHour="51.50911752651162" departLane="free" arrivalSpeed="0.0"/>
  <flow id="JF117" begin="1800" fromJunction="J3" toJunction="J5" end="2160" vehsPerHour="50.48527523137843" departLane="free" arrivalSpeed="0.0"/>
  <flow id="JF118" begin="1800" fromJunction="J3" toJunction="J7" end="2160" vehsPerHour="134.02996312932814" departLane="free" arrivalSpeed="0.0"/>
  <flow id="JF119" begin="1800" fromJunction="J4" toJunction="J0" end="2160" vehsPerHour="32.48236818099481" departLane="free" arrivalSpeed="0.0"/>
  <flow id="JF120" begin="1800" fromJunction="J4" toJunction="J3" end="2160" vehsPerHour="38.034386839552894" departLane="free" arrivalSpeed="0.0"/>
  <flow id="JF121" begin="1800" fromJunction="J4" toJunction="J5" end="2160" vehsPerHour="8.696412100242881" departLane="free" arrivalSpeed="0.0"/>
  <flow id="JF122" begin="1800" fromJunction="J5" toJunction="J0" end="2160" vehsPerHour="32.06194778393306" departLane="free" arrivalSpeed="0.0"/>
  <flow id="JF123" begin="1800" fromJunction="J5" toJunction="J3" end="2160" vehsPerHour="8.718954472278066" departLane="free" arrivalSpeed="0.0"/>
  <flow id="JF124" begin="1800" fromJunction="J5" toJunction="J4" end="2160" vehsPerHour="38.11867675442304" departLane="free" arrivalSpeed="0.0"/>
  <flow id="JF125" begin="1800" fromJunction="J5" toJunction="J6" end="2160" vehsPerHour="38.50785228604357" departLane="free" arrivalSpeed="0.0"/>
  <flow id="JF126" begin="1800" fromJunction="J5" toJunction="J7" end="2160" vehsPerHour="3.8444060739599673" departLane="free" arrivalSpeed="0.0"/>
  <flow id="JF127" begin="1800" fromJunction="J6" toJunction="J4" end="2160" vehsPerHour="35.76982519276694" departLane="free" arrivalSpeed="0.0"/>
  <flow id="JF128" begin="1800" fromJunction="J6" toJunction="J7" end="2160" vehsPerHour="28.097632746112314" departLane="free" arrivalSpeed="0.0"/>
  <flow id="JF129" begin="1800" fromJunction="J7" toJunction="J0" end="2160" vehsPerHour="63.151719532105254" departLane="free" arrivalSpeed="0.0"/>
  <flow id="JF130" begin="1800" fromJunction="J7" toJunction="J4" end="2160" vehsPerHour="53.84968997093977" departLane="free" arrivalSpeed="0.0"/>
  <flow id="JF131" begin="1800" fromJunction="J7" toJunction="J5" end="2160" vehsPerHour="61.41462785879719" departLane="free" arrivalSpeed="0.0"/>
  <flow id="JF132" begin="1800" fromJunction="J7" toJunction="J6" end="2160" vehsPerHour="1.5263108676291497" departLane="free" arrivalSpeed="0.0"/>
  <flow id="JF133" begin="2160" fromJunction="J0" toJunction="J3" end="2520" vehsPerHour="7.046525581050953" departLane="free" arrivalSpeed="0.0"/>
  <flow id="JF134" begin="2160" fromJunction="J0" toJunction="J5" end="2520" vehsPerHour="9.965142088423306" departLane="free" arrivalSpeed="0.0"/>
  <flow id="JF135" begin="2160" fromJunction="J0" toJunction="J6" end="2520" vehsPerHour="51.88095842029454" departLane="free" arrivalSpeed="0.0"/>
  <flow id="JF136" begin="2160" fromJunction="J0" toJunction="J7" end="2520" vehsPerHour="64.74696816348289" departLane="free" arrivalSpeed="0.0"/>
  <flow id="JF137" begin="2160" fromJunction="J3" toJunction="J0" end="2520" vehsPerHour="73.9951107692978" departLane="free" arrivalSpeed="0.0"/>
  <flow id="JF138" begin="2160" fromJunction="J3" toJunction="J4" end="2520" vehsPerHour="82.17530710614402" departLane="free" arrivalSpeed="0.0"/>
  <flow id="JF139" begin="2160" fromJunction="J3" toJunction="J5" end="2520" vehsPerHour="135.26540191362326" departLane="free" arrivalSpeed="0.0"/>
  <flow id="JF140" begin="2160" fromJunction="J3" toJunction="J7" end="2520" vehsPerHour="69.79669943251292" departLane="free" arrivalSpeed="0.0"/>
  <flow id="JF141" begin="2160" fromJunction="J4" toJunction="J0" end="2520" vehsPerHour="4.518760552024108" departLane="free" arrivalSpeed="0.0"/>
  <flow id="JF142" begin="2160" fromJunction="J4" toJunction="J3" end="2520" vehsPerHour="50.14776559126366" departLane="free" arrivalSpeed="0.0"/>
  <flow id="JF143" begin="2160" fromJunction="J4" toJunction="J6" end="2520" vehsPerHour="58.01348324173145" departLane="free" arrivalSpeed="0.0"/>
  <flow id="JF144" begin="2160" fromJunction="J4" toJunction="J7" end="2520" vehsPerHour="67.752783767824" departLane="free" arrivalSpeed="0.0"/>
  <flow id="JF145" begin="2160" fromJunction="J5" toJunction="J3" end="2520" vehsPerHour="66.58457974894522" departLane="free" arrivalSpeed="0.0"/>
  <flow id="JF146" begin="2160" fromJunction="J5" toJunction="J4" end="2520" vehsPerHour="10.67968678454012" departLane="free" arrivalSpeed="0.0"/>
  <flow id="JF147" begin="2160" fromJunction="J5" toJunction="J6" end="2520" vehsPerHour="28.212135360511084" departLane="free" arrivalSpeed="0.0"/>
  <flow id="JF148" begin="2160" fromJunction="J5" toJunction="J7" end="2520" vehsPerHour="5.096638271291193" departLane="free" arrivalSpeed="0.0"/>
  <flow id="JF149" begin="2160" fromJunction="J6" toJunction="J0" end="2520" vehsPerHour="65.27439239771489" departLane="free" arrivalSpeed="0.0"/>
  <flow id="JF150" begin="2160" fromJunction="J6" toJunction="J3" end="2520" vehsPerHour="65.78375624151408" departLane="free" arrivalSpeed="0.0"/>
  <flow id="JF151" begin="2160" fromJunction="J6" toJunction="J4" end="2520" vehsPerHour="20.48631660146567" departLane="free" arrivalSpeed="0.0"/>
  <flow id="JF152" begin="2160" fromJunction="J6" toJunction="J5" end="2520" vehsPerHour="18.834463306489727" departLane="free" arrivalSpeed="0.0"/>
  <flow id="JF153" begin="2160" fromJunction="J6" toJunction="J7" end="2520" vehsPerHour="6.230149141603651" departLane="free" arrivalSpeed="0.0"/>
  <flow id="JF154" begin="2160" fromJunction="J7" toJunction="J0" end="2520" vehsPerHour="45.61800206667478" departLane="free" arrivalSpeed="0.0"/>
  <flow id="JF155" begin="2160" fromJunction="J7" toJunction="J3" end="2520" vehsPerHour="53.78036389373985" departLane="free" arrivalSpeed="0.0"/>
  <flow id="JF156" begin="2160" fromJunction="J7" toJunction="J5" end="2520" vehsPerHour="2.4203890241757526" departLane="free" arrivalSpeed="0.0"/>
  <flow id="JF157" begin="2160" fromJunction="J7" toJunction="J6" end="2520" vehsPerHour="45.52774640282357" departLane="free" arrivalSpeed="0.0"/>
  <flow id="JF158" begin="2520" fromJunction="J0" toJunction="J5" end="2880" vehsPerHour="7.299055390412236" departLane="free" arrivalSpeed="0.0"/>
  <flow id="JF159" begin="2520" fromJunction="J0" toJunction="J6" end="2880" vehsPerHour="13.118437499926147" departLane="free" arrivalSpeed="0.0"/>
  <flow id="JF160" begin="2520" fromJunction="J0" toJunction="J7" end="2880" vehsPerHour="99.66478228545549" departLane="free" arrivalSpeed="0.0"/>
  <flow id="JF161" begin="2520" fromJunction="J3" toJunction="J0" end="2880" vehsPerHour="128.8576290214788" departLane="free" arrivalSpeed="0.0"/>
  <flow id="JF162" begin="2520" fromJunction="J3" toJunction="J4" end="2880" vehsPerHour="37.30264537192999" departLane="free" arrivalSpeed="0.0"/>
  <flow id="JF163" begin="2520" fromJunction="J3" toJunction="J5" end="2880" vehsPerHour="77.00603027456694" departLane="free" arrivalSpeed="0.0"/>
  <flow id="JF164" begin="2520" fromJunction="J3" toJunction="J6" end="2880" vehsPerHour="59.57379733154384" departLane="free" arrivalSpeed="0.0"/>
  <flow id="JF165" begin="2520" fromJunction="J4" toJunction="J0" end="2880" vehsPerHour="20.353566475316708" departLane="free" arrivalSpeed="0.0"/>
  <flow id="JF166" begin="2520" fromJunction="J4" toJunction="J3" end="2880" vehsPerHour="67.63546902987095" departLane="free" arrivalSpeed="0.0"/>
  <flow id="JF167" begin="2520" fromJunction="J4" toJunction="J5" end="2880" vehsPerHour="63.217532669502866" departLane="free" arrivalSpeed="0.0"/>
  <flow id="JF168" begin="2520" fromJunction="J4" toJunction="J7" end="2880" vehsPerHour="40.33020830498715" departLane="free" arrivalSpeed="0.0"/>
  <flow id="JF169" begin="2520" fromJunction="J5" toJunction="J0" end="2880" vehsPerHour="63.36843484648184" departLane="free" arrivalSpeed="0.0"/>
  <flow id="JF170" begin="2520" fromJunction="J5" toJunction="J3" end="2880" vehsPerHour="24.54320308887038" departLane="free" arrivalSpeed="0.0"/>
  <flow id="JF171" begin="2520" fromJunction="J5" toJunction="J4" end="2880" vehsPerHour="55.04987940457591" departLane="free" arrivalSpeed="0.0"/>
  <flow id="JF172" begin="2520" fromJunction="J6" toJunction="J0" end="2880" vehsPerHour="52.508979134316256" departLane="free" arrivalSpeed="0.0"/>
  <flow id="JF173" begin="2520" fromJunction="J6" toJunction="J4" end="2880" vehsPerHour="22.828192320185128" departLane="free" arrivalSpeed="0.0"/>
  <flow id="JF174" begin="2520" fromJunction="J6" toJunction="J5" end="2880" vehsPerHour="17.922037042865785" departLane="free" arrivalSpeed="0.0"/>
  <flow id="JF175" begin="2520" fromJunction="J7" toJunction="J0" end="2880" vehsPerHour="28.699262097998183" departLane="free" arrivalSpeed="0.0"/>
  <flow id="JF176" begin="2520" fromJunction="J7" toJunction="J4" end="2880" vehsPerHour="3.711466182784705" departLane="free" arrivalSpeed="0.0"/>
  <flow id="JF177" begin="2520" fromJunction="J7" toJunction="J5" end="2880" vehsPerHour="15.642251951842923" departLane="free" arrivalSpeed="0.0"/>
  <flow id="JF178" begin="2520" fromJunction="J7" toJunction="J6" end="2880" vehsPerHour="46.23781301263481" departLane="free" arrivalSpeed="0.0"/>
  <flow id="JF179" begin="2880" fromJunction="J0" toJunction="J3" end="3240" vehsPerHour="42.78071748009912" departLane="free" arrivalSpeed="0.0"/>
  <flow id="JF180" begin="2880" fromJunction="J0" toJunction="J6" end="3240" vehsPerHour="90.76584689103481" departLane="free" arrivalSpeed="0.0"/>
  <flow id="JF181" begin="2880" fromJunction="J3" toJunction="J0" end="3240" vehsPerHour="20.92869089467734" departLane="free" arrivalSpeed="0.0"/>
  <flow id="JF182" begin="2880" fromJunction="J3" toJunction="J4" end="3240" vehsPerHour="70.38212551810736" departLane="free" arrivalSpeed="0.0"/>
  <flow id="JF183" begin="2880" fromJunction="J3" toJunction="J5" end="3240" vehsPerHour="116.38150230757762" departLane="free" arrivalSpeed="0.0"/>
  <flow id="JF184" begin="2880" fromJunction="J3" toJunction="J7" end="3240" vehsPerHour="39.587526937544816" departLane="free" arrivalSpeed="0.0"/>
  <flow id="JF185" begin="2880" fromJunction="J4" toJunction="J0" end="3240" vehsPerHour="54.189356851698946" departLane="free" arrivalSpeed="0.0"/>
  <flow id="JF186" begin="2880" fromJunction="J4" toJunction="J5" end="3240" vehsPerHour="39.38403561399782" departLane="free" arrivalSpeed="0.0"/>
  <flow id="JF187" begin="2880" fromJunction="J4" toJunction="J6" end="3240" vehsPerHour="51.39280119708271" departLane="free" arrivalSpeed="0.0"/>
  <flow id="JF188" begin="2880" fromJunction="J4" toJunction="J7" end="3240" vehsPerHour="16.348612107313194" departLane="free" arrivalSpeed="0.0"/>
  <flow id="JF189" begin="2880" fromJunction="J5" toJunction="J0" end="3240" vehsPerHour="19.233825999708564" departLane="free" arrivalSpeed="0.0"/>
  <flow id="JF190" begin="2880" fromJunction="J5" toJunction="J4" end="3240" vehsPerHour="5.182648404630198" departLane="free" arrivalSpeed="0.0"/>
  <flow id="JF191" begin="2880" fromJunction="J5" toJunction="J6" end="3240" vehsPerHour="1.280245554672458" departLane="free" arrivalSpeed="0.0"/>
  <flow id="JF192" begin="2880" fromJunction="J6" toJunction="J0" end="3240" vehsPerHour="41.39994198748073" departLane="free" arrivalSpeed="0.0"/>
  <flow id="JF193" begin="2880" fromJunction="J6" toJunction="J4" end="3240" vehsPerHour="31.885588209459865" departLane="free" arrivalSpeed="0.0"/>
  <flow id="JF194" begin="2880" fromJunction="J6" toJunction="J5" end="3240" vehsPerHour="16.761829581960672" departLane="free" arrivalSpeed="0.0"/>
  <flow id="JF195" begin="2880" fromJunction="J6" toJunction="J7" end="3240" vehsPerHour="23.709997504753883" departLane="free" arrivalSpeed="0.0"/>
  <flow id="JF196" begin="2880" fromJunction="J7" toJunction="J0" end="3240" vehsPerHour="9.419723267342984" departLane="free" arrivalSpeed="0.0"/>
  <flow id="JF197" begin="2880" fromJunction="J7" toJunction="J3" end="3240" vehsPerHour="25.38670709889158" departLane="free" arrivalSpeed="0.0"/>
  <flow id="JF198" begin="2880" fromJunction="J7" toJunction="J5" end="3240" vehsPerHour="63.81814278404105" departLane="free" arrivalSpeed="0.0"/>
  <flow id="JF199" begin="3240" fromJunction="J0" toJunction="J3" end="3600" vehsPerHour="87.6019105186104" departLane="free" arrivalSpeed="0.0"/>
  <flow id="JF200" begin="3240" fromJunction="J0" toJunction="J4" end="3600" vehsPerHour="99.90378487817021" departLane="free" arrivalSpeed="0.0"/>
  <flow id="JF201" begin="3240" fromJunction="J0" toJunction="J5" end="3600" vehsPerHour="115.3497970215575" departLane="free" arrivalSpeed="0.0"/>