<?xml version="1.0" encoding="UTF-8"?>
<routes xmlns:xsi="http://www.w3.org/2001/XMLSchema-instance" xsi:noNamespaceSchemaLocation="http://sumo.dlr.de/xsd/routes_file.xsd">
  <flow id="JF0" begin="0" fromJunction="J0" toJunction="J3" end="360" vehsPerHour="17.19455435348201" departLane="free"/>
  <flow id="JF1" begin="0" fromJunction="J0" toJunction="J6" end="360" vehsPerHour="30.79068664878406" departLane="free"/>
  <flow id="JF2" begin="0" fromJunction="J0" toJunction="J7" end="360" vehsPerHour="133.0424509707824" departLane="free"/>
  <flow id="JF3" begin="0" fromJunction="J3" toJunction="J0" end="360" vehsPerHour="26.979507140661738" departLane="free"/>
  <flow id="JF4" begin="0" fromJunction="J3" toJunction="J4" end="360" vehsPerHour="25.633442841073933" departLane="free"/>
  <flow id="JF5" begin="0" fromJunction="J3" toJunction="J5" end="360" vehsPerHour="17.707293125662996" departLane="free"/>
  <flow id="JF6" begin="0" fromJunction="J3" toJunction="J6" end="360" vehsPerHour="27.136937929662473" departLane="free"/>
  <flow id="JF7" begin="0" fromJunction="J4" toJunction="J0" end="360" vehsPerHour="0.9001014537908969" departLane="free"/>
  <flow id="JF8" begin="0" fromJunction="J4" toJunction="J5" end="360" vehsPerHour="21.203688704452052" departLane="free"/>
  <flow id="JF9" begin="0" fromJunction="J4" toJunction="J6" end="360" vehsPerHour="61.22496793162239" departLane="free"/>
  <flow id="JF10" begin="0" fromJunction="J5" toJunction="J0" end="360" vehsPerHour="1.9173504572739222" departLane="free"/>
  <flow id="JF11" begin="0" fromJunction="J5" toJunction="J3" end="360" vehsPerHour="54.58527008430058" departLane="free"/>
  <flow id="JF12" begin="0" fromJunction="J6" toJunction="J0" end="360" vehsPerHour="29.15259747520457" departLane="free"/>
  <flow id="JF13" begin="0" fromJunction="J6" toJunction="J3" end="360" vehsPerHour="41.26434388607905" departLane="free"/>
  <flow id="JF14" begin="0" fromJunction="J6" toJunction="J4" end="360" vehsPerHour="28.776054096381205" departLane="free"/>
  <flow id="JF15" begin="0" fromJunction="J6" toJunction="J5" end="360" vehsPerHour="8.76488096042634" departLane="free"/>
  <flow id="JF16" begin="0" fromJunction="J6" toJunction="J7" end="360" vehsPerHour="61.063694664150646" departLane="free"/>
  <flow id="JF17" begin="0" fromJunction="J7" toJunction="J0" end="360" vehsPerHour="19.991782011856014" departLane="free"/>
  <flow id="JF18" begin="0" fromJunction="J7" toJunction="J3" end="360" vehsPerHour="5.709994891905222" departLane="free"/>
  <flow id="JF19" begin="0" fromJunction="J7" toJunction="J6" end="360" vehsPerHour="19.97377506878385" departLane="free"/>
  <flow id="JF20" begin="360" fromJunction="J0" toJunction="J3" end="720" vehsPerHour="34.6010713089472" departLane="free"/>
  <flow id="JF21" begin="360" fromJunction="J0" toJunction="J5" end="720" vehsPerHour="23.926627449238378" departLane="free"/>
  <flow id="JF22" begin="360" fromJunction="J0" toJunction="J7" end="720" vehsPerHour="27.974807746035907" departLane="free"/>
  <flow id="JF23" begin="360" fromJunction="J3" toJunction="J0" end="720" vehsPerHour="99.21592441322181" departLane="free"/>
  <flow id="JF24" begin="360" fromJunction="J3" toJunction="J5" end="720" vehsPerHour="127.26768136286142" departLane="free"/>
  <flow id="JF25" begin="360" fromJunction="J3" toJunction="J6" end="720" vehsPerHour="15.430654060684114" departLane="free"/>
  <flow id="JF26" begin="360" fromJunction="J4" toJunction="J0" end="720" vehsPerHour="53.90640624842921" departLane="free"/>
  <flow id="JF27" begin="360" fromJunction="J4" toJunction="J3" end="720" vehsPerHour="34.70689897858995" departLane="free"/>
  <flow id="JF28" begin="360" fromJunction="J4" toJunction="J5" end="720" vehsPerHour="10.976281556758991" departLane="free"/>
  <flow id="JF29" begin="360" fromJunction="J4" toJunction="J7" end="720" vehsPerHour="41.0605216041273" departLane="free"/>
  <flow id="JF30" begin="360" fromJunction="J5" toJunction="J0" end="720" vehsPerHour="53.60170931268737" departLane="free"/>
  <flow id="JF31" begin="360" fromJunction="J5" toJunction="J4" end="720" vehsPerHour="45.616845766140536" departLane="free"/>
  <flow id="JF32" begin="360" fromJunction="J5" toJunction="J7" end="720" vehsPerHour="1.0463742751010718" departLane="free"/>
  <flow id="JF33" begin="360" fromJunction="J6" toJunction="J0" end="720" vehsPerHour="34.529543719640984" departLane="free"/>
  <flow id="JF34" begin="360" fromJunction="J6" toJunction="J3" end="720" vehsPerHour="64.9112669937687" departLane="free"/>
  <flow id="JF35" begin="360" fromJunction="J6" toJunction="J5" end="720" vehsPerHour="32.23609130146206" departLane="free"/>
  <flow id="JF36" begin="360" fromJunction="J7" toJunction="J0" end="720" vehsPerHour="48.59859375729323" departLane="free"/>
  <flow id="JF37" begin="360" fromJunction="J7" toJunction="J3" end="720" vehsPerHour="5.790209355194338" departLane="free"/>
  <flow id="JF38" begin="360" fromJunction="J7" toJunction="J4" end="720" vehsPerHour="27.51020776517502" departLane="free"/>
  <flow id="JF39" begin="360" fromJunction="J7" toJunction="J5" end="720" vehsPerHour="16.00272493180941" departLane="free"/>
  <flow id="JF40" begin="360" fromJunction="J7" toJunction="J6" end="720" vehsPerHour="60.969429430881505" departLane="free"/>
  <flow id="JF41" begin="720" fromJunction="J0" toJunction="J4" end="1080" vehsPerHour="5.8803277377945555" departLane="free"/>
  <flow id="JF42" begin="720" fromJunction="J0" toJunction="J6" end="1080" vehsPerHour="71.12568225296914" departLane="free"/>
  <flow id="JF43" begin="720" fromJunction="J0" toJunction="J7" end="1080" vehsPerHour="45.2066252692805" departLane="free"/>
  <flow id="JF44" begin="720" fromJunction="J3" toJunction="J0" end="1080" vehsPerHour="106.41336175385395" departLane="free"/>
  <flow id="JF45" begin="720" fromJunction="J3" toJunction="J4" end="1080" vehsPerHour="39.688690688720705" departLane="free"/>
  <flow id="JF46" begin="720" fromJunction="J3" toJunction="J6" end="1080" vehsPerHour="27.430172891757586" departLane="free"/>
  <flow id="JF47" begin="720" fromJunction="J3" toJunction="J7" end="1080" vehsPerHour="110.45975558365289" departLane="free"/>
  <flow id="JF48" begin="720" fromJunction="J4" toJunction="J0" end="1080" vehsPerHour="65.16542408044236" departLane="free"/>
  <flow id="JF49" begin="720" fromJunction="J4" toJunction="J6" end="1080" vehsPerHour="52.07786521590492" departLane="free"/>
  <flow id="JF50" begin="720" fromJunction="J5" toJunction="J0" end="1080" vehsPerHour="6.439125963054153" departLane="free"/>
  <flow id="JF51" begin="720" fromJunction="J5" toJunction="J3" end="1080" vehsPerHour="15.90040847816979" departLane="free"/>
  <flow id="JF52" begin="720" fromJunction="J5" toJunction="J6" end="1080" vehsPerHour="14.203123085440565" departLane="free"/>
  <flow id="JF53" begin="720" fromJunction="J6" toJunction="J0" end="1080" vehsPerHour="34.96503963854548" departLane="free"/>
  <flow id="JF54" begin="720" fromJunction="J6" toJunction="J3" end="1080" vehsPerHour="51.22003699381445" departLane="free"/>
  <flow id="JF55" begin="720" fromJunction="J6" toJunction="J5" end="1080" vehsPerHour="6.5012980300657075" departLane="free"/>
  <flow id="JF56" begin="720" fromJunction="J7" toJunction="J0" end="1080" vehsPerHour="10.12541454089931" departLane="free"/>
  <flow id="JF57" begin="720" fromJunction="J7" toJunction="J3" end="1080" vehsPerHour="11.899309713940688" departLane="free"/>
  <flow id="JF58" begin="720" fromJunction="J7" toJunction="J4" end="1080" vehsPerHour="63.21323296163458" departLane="free"/>
  <flow id="JF59" begin="720" fromJunction="J7" toJunction="J5" end="1080" vehsPerHour="56.387663079000134" departLane="free"/>
  <flow id="JF60" begin="720" fromJunction="J7" toJunction="J6" end="1080" vehsPerHour="56.00527183817587" departLane="free"/>
  <flow id="JF61" begin="1080" fromJunction="J0" toJunction="J3" end="1440" vehsPerHour="52.79816431172373" departLane="free"/>
  <flow id="JF62" begin="1080" fromJunction="J0" toJunction="J4" end="1440" vehsPerHour="123.89493249127283" departLane="free"/>
  <flow id="JF63" begin="1080" fromJunction="J0" toJunction="J5" end="1440" vehsPerHour="57.512388787930306" departLane="free"/>
  <flow id="JF64" begin="1080" fromJunction="J0" toJunction="J7" end="1440" vehsPerHour="106.84248784098294" departLane="free"/>
  <flow id="JF65" begin="1080" fromJunction="J3" toJunction="J0" end="1440" vehsPerHour="25.83834722229804" departLane="free"/>
  <flow id="JF66" begin="1080" fromJunction="J3" toJunction="J6" end="1440" vehsPerHour="132.911637175126" departLane="free"/>
  <flow id="JF67" begin="1080" fromJunction="J3" toJunction="J7" end="1440" vehsPerHour="29.202201313706976" departLane="free"/>
  <flow id="JF68" begin="1080" fromJunction="J4" toJunction="J0" end="1440" vehsPerHour="55.782576264117935" departLane="free"/>
  <flow id="JF69" begin="1080" fromJunction="J4" toJunction="J5" end="1440" vehsPerHour="42.05290497911893" departLane="free"/>
  <flow id="JF70" begin="1080" fromJunction="J4" toJunction="J6" end="1440" vehsPerHour="63.99775392785999" departLane="free"/>
  <flow id="JF71" begin="1080" fromJunction="J4" toJunction="J7" end="1440" vehsPerHour="33.322105919832985" departLane="free"/>
  <flow id="JF72" begin="1080" fromJunction="J5" toJunction="J0" end="1440" vehsPerHour="16.50695485899735" departLane="free"/>
  <flow id="JF73" begin="1080" fromJunction="J5" toJunction="J3" end="1440" vehsPerHour="36.13565301082333" departLane="free"/>
  <flow id="JF74" begin="1080" fromJunction="J5" toJunction="J6" end="1440" vehsPerHour="43.491719008199006" departLane="free"/>
  <flow id="JF75" begin="1080" fromJunction="J5" toJunction="J7" end="1440" vehsPerHour="37.49571282172695" departLane="free"/>
  <flow id="JF76" begin="1080" fromJunction="J6" toJunction="J0" end="1440" vehsPerHour="67.68441375590595" departLane="free"/>
  <flow id="JF77" begin="1080" fromJunction="J6" toJunction="J3" end="1440" vehsPerHour="42.96572494386485" departLane="free"/>
  <flow id="JF78" begin="1080" fromJunction="J6" toJunction="J4" end="1440" vehsPerHour="33.30073729267792" departLane="free"/>
  <flow id="JF79" begin="1080" fromJunction="J6" toJunction="J5" end="1440" vehsPerHour="25.84773840938803" departLane="free"/>
  <flow id="JF80" begin="1080" fromJunction="J6" toJunction="J7" end="1440" vehsPerHour="37.45250177022703" departLane="free"/>
  <flow id="JF81" begin="1080" fromJunction="J7" toJunction="J0" end="1440" vehsPerHour="23.975130221450467" departLane="free"/>
  <flow id="JF82" begin="1080" fromJunction="J7" toJunction="J3" end="1440" vehsPerHour="56.73729576816208" departLane="free"/>
  <flow id="JF83" begin="1080" fromJunction="J7" toJunction="J4" end="1440" vehsPerHour="52.31438089514826" departLane="free"/>
  <flow id="JF84" begin="1080" fromJunction="J7" toJunction="J5" end="1440" vehsPerHour="31.38692387405535" departLane="free"/>
  <flow id="JF85" begin="1440" fromJunction="J0" toJunction="J3" end="1800" vehsPerHour="35.72667716438615" departLane="free"/>
  <flow id="JF86" begin="1440" fromJunction="J0" toJunction="J4" end="1800" vehsPerHour="62.32872251149057" departLane="free"/>
  <flow id="JF87" begin="1440" fromJunction="J0" toJunction="J5" end="1800" vehsPerHour="93.60311812722543" departLane="free"/>
  <flow id="JF88" begin="1440" fromJunction="J0" toJunction="J6" end="1800" vehsPerHour="66.69142563064563" departLane="free"/>
  <flow id="JF89" begin="1440" fromJunction="J3" toJunction="J4" end="1800" vehsPerHour="24.819390537916885" departLane="free"/>
  <flow id="JF90" begin="1440" fromJunction="J3" toJunction="J5" end="1800" vehsPerHour="131.42904360838773" departLane="free"/>
  <flow id="JF91" begin="1440" fromJunction="J3" toJunction="J6" end="1800" vehsPerHour="29.520011473080956" departLane="free"/>
  <flow id="JF92" begin="1440" fromJunction="J3" toJunction="J7" end="1800" vehsPerHour="50.36022702061793" departLane="free"/>
  <flow id="JF93" begin="1440" fromJunction="J4" toJunction="J0" end="1800" vehsPerHour="53.96018192487989" departLane="free"/>
  <flow id="JF94" begin="1440" fromJunction="J4" toJunction="J3" end="1800" vehsPerHour="16.881931977784127" departLane="free"/>
  <flow id="JF95" begin="1440" fromJunction="J4" toJunction="J5" end="1800" vehsPerHour="19.437584913057528" departLane="free"/>
  <flow id="JF96" begin="1440" fromJunction="J4" toJunction="J6" end="1800" vehsPerHour="24.731273643317692" departLane="free"/>
  <flow id="JF97" begin="1440" fromJunction="J4" toJunction="J7" end="1800" vehsPerHour="42.19024500842748" departLane="free"/>
  <flow id="JF98" begin="1440" fromJunction="J5" toJunction="J3" end="1800" vehsPerHour="63.58973601400519" departLane="free"/>
  <flow id="JF99" begin="1440" fromJunction="J6" toJunction="J4" end="1800" vehsPerHour="32.89790997685526" departLane="free"/>
  <flow id="JF100" begin="1440" fromJunction="J6" toJunction="J5" end="1800" vehsPerHour="64.72418038384478" departLane="free"/>
  <flow id="JF101" begin="1440" fromJunction="J6" toJunction="J7" end="1800" vehsPerHour="30.37021396687087" departLane="free"/>
  <flow id="JF102" begin="1440" fromJunction="J7" toJunction="J3" end="1800" vehsPerHour="53.03844713529583" departLane="free"/>
  <flow id="JF103" begin="1440" fromJunction="J7" toJunction="J5" end="1800" vehsPerHour="26.017656063650293" departLane="free"/>
  <flow id="JF104" begin="1800" fromJunction="J0" toJunction="J3" end="2160" vehsPerHour="136.53130395511837" departLane="free"/>
  <flow id="JF105" begin="1800" fromJunction="J0" toJunction="J4" end="2160" vehsPerHour="10.104894582157458" departLane="free"/>
  <flow id="JF106" begin="1800" fromJunction="J0" toJunction="J5" end="2160" vehsPerHour="115.48892603172837" departLane="free"/>
  <flow id="JF107" begin="1800" fromJunction="J0" toJunction="J6" end="2160" vehsPerHour="65.02234276088245" departLane="free"/>
  <flow id="JF108" begin="1800" fromJunction="J3" toJunction="J0" end="2160" vehsPerHour="100.82165772053591" departLane="free"/>
  <flow id="JF109" begin="1800" fromJunction="J3" toJunction="J4" end="2160" vehsPerHour="12.995822247878726" departLane="free"/>
  <flow id="JF110" begin="1800" fromJunction="J3" toJunction="J5" end="2160" vehsPerHour="86.70271545205351" departLane="free"/>
  <flow id="JF111" begin="1800" fromJunction="J4" toJunction="J5" end="2160" vehsPerHour="65.19563187781657" departLane="free"/>
  <flow id="JF112" begin="1800" fromJunction="J4" toJunction="J6" end="2160" vehsPerHour="22.37404625752035" departLane="free"/>
  <flow id="JF113" begin="1800" fromJunction="J4" toJunction="J7" end="2160" vehsPerHour="18.84303811382583" departLane="free"/>
  <flow id="JF114" begin="1800" fromJunction="J5" toJunction="J3" end="2160" vehsPerHour="42.97708022937294" departLane="free"/>
  <flow id="JF115" begin="1800" fromJunction="J5" toJunction="J4" end="2160" vehsPerHour="36.28296684058719" departLane="free"/>
  <flow id="JF116" begin="1800" fromJunction="J5" toJunction="J6" end="2160" vehsPerHour="62.304949584711814" departLane="free"/>
  <flow id="JF117" begin="1800" fromJunction="J6" toJunction="J0" end="2160" vehsPerHour="22.092810030954947" departLane="free"/>
  <flow id="JF118" begin="1800" fromJunction="J6" toJunction="J4" end="2160" vehsPerHour="44.69789733552763" departLane="free"/>
  <flow id="JF119" begin="1800" fromJunction="J6" toJunction="J5" end="2160" vehsPerHour="34.80994194898302" departLane="free"/>
  <flow id="JF120" begin="1800" fromJunction="J7" toJunction="J0" end="2160" vehsPerHour="20.513196955046787" departLane="free"/>
  <flow id="JF121" begin="1800" fromJunction="J7" toJunction="J3" end="2160" vehsPerHour="32.14471709135473" departLane="free"/>
  <flow id="JF122" begin="1800" fromJunction="J7" toJunction="J5" end="2160" vehsPerHour="52.13908173221779" departLane="free"/>
  <flow id="JF123" begin="1800" fromJunction="J7" toJunction="J6" end="2160" vehsPerHour="34.11101233083851" departLane="free"/>
  <flow id="JF124" begin="2160" fromJunction="J0" toJunction="J3" end="2520" vehsPerHour="68.70215369241019" departLane="free"/>
  <flow id="JF125" begin="2160" fromJunction="J0" toJunction="J4" end="2520" vehsPerHour="134.65347684295568" departLane="free"/>
  <flow id="JF126" begin="2160" fromJunction="J0" toJunction="J5" end="2520" vehsPerHour="126.49811029379507" departLane="free"/>
  <flow id="JF127" begin="2160" fromJunction="J0" toJunction="J6" end="2520" vehsPerHour="73.6041448566728" departLane="free"/>
  <flow id="JF128" begin="2160" fromJunction="J0" toJunction="J7" end="2520" vehsPerHour="91.95391630876328" departLane="free"/>
  <flow id="JF129" begin="2160" fromJunction="J3" toJunction="J0" end="2520" vehsPerHour="111.8630801992525" departLane="free"/>
  <flow id="JF130" begin="2160" fromJunction="J3" toJunction="J4" end="2520" vehsPerHour="85.30571892973637" departLane="free"/>
  <flow id="JF131" begin="2160" fromJunction="J3" toJunction="J6" end="2520" vehsPerHour="11.514492997470215" departLane="free"/>
  <flow id="JF132" begin="2160" fromJunction="J3" toJunction="J7" end="2520" vehsPerHour="28.94733714237053" departLane="free"/>
  <flow id="JF133" begin="2160" fromJunction="J4" toJunction="J0" end="2520" vehsPerHour="36.669987511532184" departLane="free"/>
  <flow id="JF134" begin="2160" fromJunction="J4" toJunction="J6" end="2520" vehsPerHour="12.801151819589885" departLane="free"/>
  <flow id="JF135" begin="2160" fromJunction="J4" toJunction="J7" end="2520" vehsPerHour="63.919685128455455" departLane="free"/>
  <flow id="JF136" begin="2160" fromJunction="J5" toJunction="J0" end="2520" vehsPerHour="51.42436927574714" departLane="free"/>
  <flow id="JF137" begin="2160" fromJunction="J5" toJunction="J6" end="2520" vehsPerHour="25.9079643960563" departLane="free"/>
  <flow id="JF138" begin="2160" fromJunction="J5" toJunction="J7" end="2520" vehsPerHour="26.85549621408954" departLane="free"/>
  <flow id="JF139" begin="2160" fromJunction="J6" toJunction="J3" end="2520" vehsPerHour="33.229663568610604" departLane="free"/>
  <flow id="JF140" begin="2160" fromJunction="J6" toJunction="J7" end="2520" vehsPerHour="61.03443679921724" departLane="free"/>
  <flow id="JF141" begin="2160" fromJunction="J7" toJunction="J3" end="2520" vehsPerHour="5.084366936372196" departLane="free"/>
  <flow id="JF142" begin="2160" fromJunction="J7" toJunction="J5" end="2520" vehsPerHour="24.038886300421115" departLane="free"/>
  <flow id="JF143" begin="2520" fromJunction="J0" toJunction="J4" end="2880" vehsPerHour="32.348444290308606" departLane="free"/>
  <flow id="JF144" begin="2520" fromJunction="J0" toJunction="J5" end="2880" vehsPerHour="84.5294795709327" departLane="free"/>
  <flow id="JF145" begin="2520" fromJunction="J0" toJunction="J6" end="2880" vehsPerHour="23.129145674774417" departLane="free"/>
  <flow id="JF146" begin="2520" fromJunction="J0" toJunction="J7" end="2880" vehsPerHour="23.013099560892865" departLane="free"/>
  <flow id="JF147" begin="2520" fromJunction="J3" toJunction="J4" end="2880" vehsPerHour="129.07098595730673" departLane="free"/>
  <flow id="JF148" begin="2520" fromJunction="J3" toJunction="J5" end="2880" vehsPerHour="39.1748490261695" departLane="free"/>
  <flow id="JF149" begin="2520" fromJunction="J3" toJunction="J6" end="2880" vehsPerHour="107.35429849626554" departLane="free"/>
  <flow id="JF150" begin="2520" fromJunction="J3" toJunction="J7" end="2880" vehsPerHour="111.95853044517318" departLane="free"/>
  <flow id="JF151" begin="2520" fromJunction="J4" toJunction="J3" end="2880" vehsPerHour="68.50657793049582" departLane="free"/>
  <flow id="JF152" begin="2520" fromJunction="J4" toJunction="J5" end="2880" vehsPerHour="23.49727742790955" departLane="free"/>
  <flow id="JF153" begin="2520" fromJunction="J4" toJunction="J6" end="2880" vehsPerHour="27.87639471289931" departLane="free"/>
  <flow id="JF154" begin="2520" fromJunction="J4" toJunction="J7" end="2880" vehsPerHour="17.774624482272777" departLane="free"/>
  <flow id="JF155" begin="2520" fromJunction="J5" toJunction="J0" end="2880" vehsPerHour="56.38149893595598" departLane="free"/>
  <flow id="JF156" begin="2520" fromJunction="J5" toJunction="J3" end="2880" vehsPerHour="64.60045529103768" departLane="free"/>
  <flow id="JF157" begin="2520" fromJunction="J6" toJunction="J0" end="2880" vehsPerHour="68.42254544008182" departLane="free"/>
  <flow id="JF158" begin="2520" fromJunction="J6" toJunction="J3" end="2880" vehsPerHour="65.27009731613352" departLane="free"/>
  <flow id="JF159" begin="2520" fromJunction="J6" toJunction="J4" end="2880" vehsPerHour="48.02088598702729" departLane="free"/>
  <flow id="JF160" begin="2520" fromJunction="J6" toJunction="J5" end="2880" vehsPerHour="40.91705560183608" departLane="free"/>
  <flow id="JF161" begin="2520" fromJunction="J6" toJunction="J7" end="2880" vehsPerHour="46.273955846472056" departLane="free"/>
  <flow id="JF162" begin="2520" fromJunction="J7" toJunction="J0" end="2880" vehsPerHour="35.21347646296438" departLane="free"/>
  <flow id="JF163" begin="2520" fromJunction="J7" toJunction="J3" end="2880" vehsPerHour="32.25993538951783" departLane="free"/>
  <flow id="JF164" begin="2520" fromJunction="J7" toJunction="J4" end="2880" vehsPerHour="1.9389309409079036" departLane="free"/>
  <flow id="JF165" begin="2520" fromJunction="J7" toJunction="J5" end="2880" vehsPerHour="38.240783371851606" departLane="free"/>
  <flow id="JF166" begin="2880" fromJunction="J0" toJunction="J3" end="3240" vehsPerHour="130.42378866827033" departLane="free"/>
  <flow id="JF167" begin="2880" fromJunction="J0" toJunction="J4" end="3240" vehsPerHour="2.463842597653111" departLane="free"/>
  <flow id="JF168" begin="2880" fromJunction="J0" toJunction="J7" end="3240" vehsPerHour="69.41712428373567" departLane="free"/>
  <flow id="JF169" begin="2880" fromJunction="J3" toJunction="J0" end="3240" vehsPerHour="98.09209053969727" departLane="free"/>
  <flow id="JF170" begin="2880" fromJunction="J3" toJunction="J4" end="3240" vehsPerHour="30.75973594161234" departLane="free"/>
  <flow id="JF171" begin="2880" fromJunction="J3" toJunction="J6" end="3240" vehsPerHour="80.57991044254156" departLane="free"/>
  <flow id="JF172" begin="2880" fromJunction="J3" toJunction="J7" end="3240" vehsPerHour="126.08674440867367" departLane="free"/>
  <flow id="JF173" begin="2880" fromJunction="J4" toJunction="J7" end="3240" vehsPerHour="8.343743838763595" departLane="free"/>
  <flow id="JF174" begin="2880" fromJunction="J5" toJunction="J0" end="3240" vehsPerHour="0.08124016876691979" departLane="free"/>
  <flow id="JF175" begin="2880" fromJunction="J5" toJunction="J4" end="3240" vehsPerHour="48.93137636679005" departLane="free"/>
  <flow id="JF176" begin="2880" fromJunction="J5" toJunction="J6" end="3240" vehsPerHour="0.4906429579201033" departLane="free"/>
  <flow id="JF177" begin="2880" fromJunction="J6" toJunction="J0" end="3240" vehsPerHour="29.879778802732954" departLane="free"/>
  <flow id="JF178" begin="2880" fromJunction="J6" toJunction="J3" end="3240" vehsPerHour="10.44164868897867" departLane="free"/>
  <flow id="JF179" begin="2880" fromJunction="J6" toJunction="J4" end="3240" vehsPerHour="20.614897904768934" departLane="free"/>
  <flow id="JF180" begin="2880" fromJunction="J7" toJunction="J0" end="3240" vehsPerHour="26.546334966174232" departLane="free"/>
  <flow id="JF181" begin="2880" fromJunction="J7" toJunction="J3" end="3240" vehsPerHour="43.58521382456764" departLane="free"/>
  <flow id="JF182" begin="2880" fromJunction="J7" toJunction="J4" end="3240" vehsPerHour="24.377637953104315" departLane="free"/>
  <flow id="JF183" begin="2880" fromJunction="J7" toJunction="J5" end="3240" vehsPerHour="39.654225820223836" departLane="free"/>
  <flow id="JF184" begin="3240" fromJunction="J0" toJunction="J3" end="3600" vehsPerHour="110.58783736596769" departLane="free"/>
  <flow id="JF185" begin="3240" fromJunction="J0" toJunction="J6" end="3600" vehsPerHour="6.266191840690622" departLane="free"/>
  <flow id="JF186" begin="3240" fromJunction="J0" toJunction="J7" end="3600" vehsPerHour="45.033734095632504" departLane="free"/>
  <flow id="JF187" begin="3240" fromJunction="J3" toJunction="J4" end="3600" vehsPerHour="117.53442044567753" departLane="free"/>
  <flow id="JF188" begin="3240" fromJunction="J3" toJunction="J5" end="3600" vehsPerHour="38.21552485345678" departLane="free"/>
  <flow id="JF189" begin="3240" fromJunction="J3" toJunction="J7" end="3600" vehsPerHour="135.33289140892873" departLane="free"/>
  <flow id="JF190" begin="3240" fromJunction="J4" toJunction="J0" end="3600" vehsPerHour="67.50422244070838" departLane="free"/>
  <flow id="JF191" begin="3240" fromJunction="J4" toJunction="J7" end="3600" vehsPerHour="55.62012961256654" departLane="free"/>
  <flow id="JF192" begin="3240" fromJunction="J5" toJunction="J0" end="3600" vehsPerHour="32.063278034771514" departLane="free"/>
  <flow id="JF193" begin="3240" fromJunction="J5" toJunction="J4" end="3600" vehsPerHour="51.077910339785355" departLane="free"/>
  <flow id="JF194" begin="3240" fromJunction="J5" toJunction="J7" end="3600" vehsPerHour="45.23615610404084" departLane="free"/>
  <flow id="JF195" begin="3240" fromJunction="J6" toJunction="J3" end="3600" vehsPerHour="23.96549824065968" departLane="free"/>
  <flow id="JF196" begin="3240" fromJunction="J6" toJunction="J4" end="3600" vehsPerHour="47.44604594260487" departLane="free"/>
  <flow id="JF197" begin="3240" fromJunction="J7" toJunction="J0" end="3600" vehsPerHour="41.30181218511742" departLane="free"/>
  <flow id="JF198" begin="3240" fromJunction="J7" toJunction="J4" end="3600" vehsPerHour="32.71698683733653" departLane="free"/>
  <flow id="JF199" begin="3240" fromJunction="J7" toJunction="J5" end="3600" vehsPerHour="53.10219730149651" departLane="free"/>
  <flow id="JF200" begin="3240" fromJunction="J7" toJunction="J6" end="3600" vehsPerHour="51.817442515683766" departLane="free"/>
  <flow id="JF201" begin="3600" fromJunction="J0" toJunction="J4" end="3960" vehsPerHour="103.9128125917152" departLane="free"/>
  <flow id="JF202" begin="3600" fromJunction="J0" toJunction="J5" end="3960" vehsPerHour="23.58398861269222" departLane="free"/>
  <flow id="JF203" begin="3600" fromJunction="J3" toJunction="J0" end="3960" vehsPerHour="133.55836085480692" departLane="free"/>
  <flow id="JF204" begin="3600" fromJunction="J3" toJunction="J4" end="3960" vehsPerHour="116.16855102618882" departLane="free"/>
  <flow id="JF205" begin="3600" fromJunction="J3" toJunction="J5" end="3960" vehsPerHour="33.919948397214064" departLane="free"/>
  <flow id="JF206" begin="3600" fromJunction="J3" toJunction="J6" end="3960" vehsPerHour="42.20002957868826" departLane="free"/>
  <flow id="JF207" begin="3600" fromJunction="J3" toJunction="J7" end="3960" vehsPerHour="84.82145162621015" departLane="free"/>
  <flow id="JF208" begin="3600" fromJunction="J4" toJunction="J0" end="3960" vehsPerHour="49.921870683893104" departLane="free"/>
  <flow id="JF209" begin="3600" fromJunction="J4" toJunction="J3" end="3960" vehsPerHour="48.53184709432958" departLane="free"/>
  <flow id="JF210" begin="3600" fromJunction="J4" toJunction="J5" end="3960" vehsPerHour="36.191980752839505" departLane="free"/>
  <flow id="JF211" begin="3600" fromJunction="J4" toJunction="J6" end="3960" vehsPerHour="67.8601247433011" departLane="free"/>
  <flow id="JF212" begin="3600" fromJunction="J4" toJunction="J7" end="3960" vehsPerHour="45.66703491596183" departLane="free"/>
  <flow id="JF213" begin="3600" fromJunction="J5" toJunction="J0" end="3960" vehsPerHour="31.96588018942109" departLane="free"/>
  <flow id="JF214" begin="3600" fromJunction="J5" toJunction="J3" end="3960" vehsPerHour="35.317819840085" departLane="free"/>
  <flow id="JF215" begin="3600" fromJunction="J5" toJunction="J4" end="3960" vehsPerHour="60.55523644339984" departLane="free"/>
  <flow id="JF216" begin="3600" fromJunction="J5" toJunction="J6" end="3960" vehsPerHour="33.40364542605058" departLane="free"/>
  <flow id="JF217" begin="3600" fromJunction="J5" toJunction="J7" end="3960" vehsPerHour="31.14202218100442" departLane="free"/>
  <flow id="JF218" begin="3600" fromJunction="J6" toJunction="J0" end="3960" vehsPerHour="2.4677134653014305" departLane="free"/>
  <flow id="JF219" begin="3600" fromJunction="J6" toJunction="J3" end="3960" vehsPerHour="54.707628330850795" departLane="free"/>
  <flow id="JF220" begin="3600" fromJunction="J6" toJunction="J4" end="3960" vehsPerHour="50.137821616879314" departLane="free"/>
  <flow id="JF221" begin="3600" fromJunction="J6" toJunction="J5" end="3960" vehsPerHour="43.44155979006536" departLane="free"/>
  <flow id="JF222" begin="3600" fromJunction="J6" toJunction="J7" end="3960" vehsPerHour="53.93142640664544" departLane="free"/>
  <flow id="JF223" begin="3600" fromJunction="J7" toJunction="J0" end="3960" vehsPerHour="10.887883273691582" departLane="free"/>
  <flow id="JF224" begin="3600" fromJunction="J7" toJunction="J3" end="3960" vehsPerHour="41.095059333390864" departLane="free"/>
  <flow id="JF225" begin="3600" fromJunction="J7" toJunction="J5" end="3960" vehsPerHour="61.7161614304632" departLane="free"/>
  <flow id="JF226" begin="3600" fromJunction="J7" toJunction="J6" end="3960" vehsPerHour="56.78032794850143" departLane="free"/>
  <flow id="JF227" begin="3960" fromJunction="J0" toJunction="J3" end="4320" vehsPerHour="59.571107480524375" departLane="free"/>
  <flow id="JF228" begin="3960" fromJunction="J0" toJunction="J4" end="4320" vehsPerHour="0.21993030816929804" departLane="free"/>
  <flow id="JF229" begin="3960" fromJunction="J0" toJunction="J5" end="4320" vehsPerHour="87.8032354234631" departLane="free"/>
  <flow id="JF230" begin="3960" fromJunction="J0" toJunction="J7" end="4320" vehsPerHour="15.40249692140232" departLane="free"/>
  <flow id="JF231" begin="3960" fromJunction="J3" toJunction="J0" end="4320" vehsPerHour="107.2804171001945" departLane="free"/>