<?xml version="1.0" encoding="UTF-8"?>
<routes xmlns:xsi="http://www.w3.org/2001/XMLSchema-instance" xsi:noNamespaceSchemaLocation="http://sumo.dlr.de/xsd/routes_file.xsd">
  <flow id="JF66221" begin="0" fromJunction="J3" toJunction="J0" end="60" vehsPerHour="233.67279725372345" departLane="free"/>
  <flow id="JF66222" begin="0" fromJunction="J0" toJunction="J3" end="60" vehsPerHour="33.377667400014076" departLane="free"/>
  <flow id="JF66223" begin="0" fromJunction="J3" toJunction="J4" end="60" vehsPerHour="93.06996666635385" departLane="free"/>
  <flow id="JF66224" begin="0" fromJunction="J3" toJunction="J7" end="60" vehsPerHour="71.76600445060227" departLane="free"/>
  <flow id="JF66225" begin="0" fromJunction="J3" toJunction="J5" end="60" vehsPerHour="54.88290710570018" departLane="free"/>
  <flow id="JF66226" begin="0" fromJunction="J3" toJunction="J6" end="60" vehsPerHour="82.58726339058535" departLane="free"/>
  <flow id="JF66227" begin="0" fromJunction="J0" toJunction="J4" end="60" vehsPerHour="103.94419120030479" departLane="free"/>
  <flow id="JF66228" begin="0" fromJunction="J0" toJunction="J7" end="60" vehsPerHour="24.352877855909142" departLane="free"/>
  <flow id="JF66229" begin="0" fromJunction="J0" toJunction="J5" end="60" vehsPerHour="125.56165418430463" departLane="free"/>
  <flow id="JF66230" begin="0" fromJunction="J0" toJunction="J6" end="60" vehsPerHour="94.7636059240537" departLane="free"/>
  <flow id="JF66231" begin="60" fromJunction="J3" toJunction="J0" end="120" vehsPerHour="66.33481400413274" departLane="free"/>
  <flow id="JF66232" begin="60" fromJunction="J0" toJunction="J3" end="120" vehsPerHour="458.7400757480444" departLane="free"/>
  <flow id="JF66233" begin="60" fromJunction="J3" toJunction="J4" end="120" vehsPerHour="1.2380548773328515" departLane="free"/>
  <flow id="JF66234" begin="60" fromJunction="J3" toJunction="J7" end="120" vehsPerHour="95.1257626299712" departLane="free"/>
  <flow id="JF66235" begin="60" fromJunction="J3" toJunction="J5" end="120" vehsPerHour="111.19318199697919" departLane="free"/>
  <flow id="JF66236" begin="60" fromJunction="J3" toJunction="J6" end="120" vehsPerHour="22.98755719043798" departLane="free"/>
  <flow id="JF66237" begin="60" fromJunction="J0" toJunction="J4" end="120" vehsPerHour="119.14733018565227" departLane="free"/>
  <flow id="JF66238" begin="60" fromJunction="J0" toJunction="J7" end="120" vehsPerHour="108.5271670528132" departLane="free"/>
  <flow id="JF66239" begin="60" fromJunction="J0" toJunction="J5" end="120" vehsPerHour="124.40970140264079" departLane="free"/>
  <flow id="JF66240" begin="60" fromJunction="J0" toJunction="J6" end="120" vehsPerHour="111.15433218787047" departLane="free"/>
  <flow id="JF66241" begin="60" fromJunction="J4" toJunction="J7" end="120" vehsPerHour="16.50702066513814" departLane="free"/>
  <flow id="JF66242" begin="60" fromJunction="J4" toJunction="J5" end="120" vehsPerHour="7.111619552678369" departLane="free"/>
  <flow id="JF66243" begin="60" fromJunction="J4" toJunction="J6" end="120" vehsPerHour="52.32971007995503" departLane="free"/>
  <flow id="JF66244" begin="60" fromJunction="J7" toJunction="J4" end="120" vehsPerHour="43.133537023081374" departLane="free"/>
  <flow id="JF66245" begin="60" fromJunction="J7" toJunction="J5" end="120" vehsPerHour="43.037172472261915" departLane="free"/>
  <flow id="JF66246" begin="60" fromJunction="J7" toJunction="J6" end="120" vehsPerHour="41.4962394425232" departLane="free"/>
  <flow id="JF66247" begin="60" fromJunction="J5" toJunction="J4" end="120" vehsPerHour="58.37034146343816" departLane="free"/>
  <flow id="JF66248" begin="60" fromJunction="J5" toJunction="J7" end="120" vehsPerHour="28.954966808093417" departLane="free"/>
  <flow id="JF66249" begin="60" fromJunction="J5" toJunction="J6" end="120" vehsPerHour="67.74143008860082" departLane="free"/>
  <flow id="JF66250" begin="60" fromJunction="J6" toJunction="J4" end="120" vehsPerHour="37.80542580114884" departLane="free"/>
  <flow id="JF66251" begin="60" fromJunction="J6" toJunction="J7" end="120" vehsPerHour="48.311020449198914" departLane="free"/>
  <flow id="JF66252" begin="60" fromJunction="J6" toJunction="J5" end="120" vehsPerHour="32.110919486021984" departLane="free"/>
  <flow id="JF66253" begin="60" fromJunction="J4" toJunction="J3" end="120" vehsPerHour="48.57819015889788" departLane="free"/>
  <flow id="JF66254" begin="60" fromJunction="J4" toJunction="J0" end="120" vehsPerHour="9.788287854824466" departLane="free"/>
  <flow id="JF66255" begin="60" fromJunction="J7" toJunction="J3" end="120" vehsPerHour="8.745288494656313" departLane="free"/>
  <flow id="JF66256" begin="60" fromJunction="J7" toJunction="J0" end="120" vehsPerHour="56.2210300606687" departLane="free"/>
  <flow id="JF66257" begin="60" fromJunction="J5" toJunction="J3" end="120" vehsPerHour="37.86502426451014" departLane="free"/>
  <flow id="JF66258" begin="60" fromJunction="J5" toJunction="J0" end="120" vehsPerHour="37.953712021974916" departLane="free"/>
  <flow id="JF66259" begin="60" fromJunction="J6" toJunction="J3" end="120" vehsPerHour="20.896456594246963" departLane="free"/>
  <flow id="JF66260" begin="60" fromJunction="J6" toJunction="J0" end="120" vehsPerHour="52.703122437411665" departLane="free"/>
  <flow id="JF66261" begin="120" fromJunction="J3" toJunction="J0" end="180" vehsPerHour="208.73224108434337" departLane="free"/>
  <flow id="JF66262" begin="120" fromJunction="J0" toJunction="J3" end="180" vehsPerHour="261.4830974160756" departLane="free"/>
  <flow id="JF66263" begin="120" fromJunction="J3" toJunction="J4" end="180" vehsPerHour="72.34049481763859" departLane="free"/>
  <flow id="JF66264" begin="120" fromJunction="J3" toJunction="J7" end="180" vehsPerHour="50.30994908605424" departLane="free"/>
  <flow id="JF66265" begin="120" fromJunction="J3" toJunction="J5" end="180" vehsPerHour="104.13817405387265" departLane="free"/>
  <flow id="JF66266" begin="120" fromJunction="J3" toJunction="J6" end="180" vehsPerHour="0.2577334260341084" departLane="free"/>
  <flow id="JF66267" begin="120" fromJunction="J0" toJunction="J4" end="180" vehsPerHour="90.1774007459695" departLane="free"/>
  <flow id="JF66268" begin="120" fromJunction="J0" toJunction="J7" end="180" vehsPerHour="125.73954965062998" departLane="free"/>
  <flow id="JF66269" begin="120" fromJunction="J0" toJunction="J5" end="180" vehsPerHour="64.53067266191039" departLane="free"/>
  <flow id="JF66270" begin="120" fromJunction="J0" toJunction="J6" end="180" vehsPerHour="40.529542842492056" departLane="free"/>
  <flow id="JF66271" begin="180" fromJunction="J3" toJunction="J0" end="240" vehsPerHour="92.90846974314422" departLane="free"/>
  <flow id="JF66272" begin="180" fromJunction="J0" toJunction="J3" end="240" vehsPerHour="173.91996398859897" departLane="free"/>
  <flow id="JF66273" begin="180" fromJunction="J3" toJunction="J4" end="240" vehsPerHour="8.90124245663121" departLane="free"/>
  <flow id="JF66274" begin="180" fromJunction="J3" toJunction="J7" end="240" vehsPerHour="45.45429057626518" departLane="free"/>
  <flow id="JF66275" begin="180" fromJunction="J3" toJunction="J5" end="240" vehsPerHour="13.020735551112288" departLane="free"/>
  <flow id="JF66276" begin="180" fromJunction="J3" toJunction="J6" end="240" vehsPerHour="16.415149317823193" departLane="free"/>
  <flow id="JF66277" begin="180" fromJunction="J0" toJunction="J4" end="240" vehsPerHour="50.584947489621996" departLane="free"/>
  <flow id="JF66278" begin="180" fromJunction="J0" toJunction="J7" end="240" vehsPerHour="50.71674630645945" departLane="free"/>
  <flow id="JF66279" begin="180" fromJunction="J0" toJunction="J5" end="240" vehsPerHour="24.983346985968375" departLane="free"/>
  <flow id="JF66280" begin="180" fromJunction="J0" toJunction="J6" end="240" vehsPerHour="133.24073375923018" departLane="free"/>
  <flow id="JF66281" begin="240" fromJunction="J3" toJunction="J0" end="300" vehsPerHour="124.56549063980388" departLane="free"/>
  <flow id="JF66282" begin="240" fromJunction="J0" toJunction="J3" end="300" vehsPerHour="478.84539528267794" departLane="free"/>
  <flow id="JF66283" begin="240" fromJunction="J3" toJunction="J4" end="300" vehsPerHour="122.58025293964207" departLane="free"/>
  <flow id="JF66284" begin="240" fromJunction="J3" toJunction="J7" end="300" vehsPerHour="99.26102344646823" departLane="free"/>
  <flow id="JF66285" begin="240" fromJunction="J3" toJunction="J5" end="300" vehsPerHour="79.35661377507682" departLane="free"/>
  <flow id="JF66286" begin="240" fromJunction="J3" toJunction="J6" end="300" vehsPerHour="93.34290255326444" departLane="free"/>
  <flow id="JF66287" begin="240" fromJunction="J0" toJunction="J4" end="300" vehsPerHour="131.19881933452857" departLane="free"/>
  <flow id="JF66288" begin="240" fromJunction="J0" toJunction="J7" end="300" vehsPerHour="132.32210710959754" departLane="free"/>
  <flow id="JF66289" begin="240" fromJunction="J0" toJunction="J5" end="300" vehsPerHour="62.69229463248488" departLane="free"/>
  <flow id="JF66290" begin="240" fromJunction="J0" toJunction="J6" end="300" vehsPerHour="20.260560102114148" departLane="free"/>
  <flow id="JF66291" begin="240" fromJunction="J4" toJunction="J7" end="300" vehsPerHour="48.9266926593705" departLane="free"/>
  <flow id="JF66292" begin="240" fromJunction="J4" toJunction="J5" end="300" vehsPerHour="27.498965060414115" departLane="free"/>
  <flow id="JF66293" begin="240" fromJunction="J4" toJunction="J6" end="300" vehsPerHour="30.714284291899215" departLane="free"/>
  <flow id="JF66294" begin="240" fromJunction="J7" toJunction="J4" end="300" vehsPerHour="59.6035697204159" departLane="free"/>
  <flow id="JF66295" begin="240" fromJunction="J7" toJunction="J5" end="300" vehsPerHour="14.961053329388788" departLane="free"/>
  <flow id="JF66296" begin="240" fromJunction="J7" toJunction="J6" end="300" vehsPerHour="41.97320096899741" departLane="free"/>
  <flow id="JF66297" begin="240" fromJunction="J5" toJunction="J4" end="300" vehsPerHour="67.64312510187857" departLane="free"/>
  <flow id="JF66298" begin="240" fromJunction="J5" toJunction="J7" end="300" vehsPerHour="55.70285804916295" departLane="free"/>
  <flow id="JF66299" begin="240" fromJunction="J5" toJunction="J6" end="300" vehsPerHour="50.71187150146826" departLane="free"/>
  <flow id="JF66300" begin="240" fromJunction="J6" toJunction="J4" end="300" vehsPerHour="18.290318831662457" departLane="free"/>
  <flow id="JF66301" begin="240" fromJunction="J6" toJunction="J7" end="300" vehsPerHour="11.78323016869118" departLane="free"/>
  <flow id="JF66302" begin="240" fromJunction="J6" toJunction="J5" end="300" vehsPerHour="19.45670305292741" departLane="free"/>
  <flow id="JF66303" begin="240" fromJunction="J4" toJunction="J3" end="300" vehsPerHour="20.014062011273342" departLane="free"/>
  <flow id="JF66304" begin="240" fromJunction="J4" toJunction="J0" end="300" vehsPerHour="11.143426094708634" departLane="free"/>
  <flow id="JF66305" begin="240" fromJunction="J7" toJunction="J3" end="300" vehsPerHour="11.230156625315157" departLane="free"/>
  <flow id="JF66306" begin="240" fromJunction="J7" toJunction="J0" end="300" vehsPerHour="10.120234985144807" departLane="free"/>
  <flow id="JF66307" begin="240" fromJunction="J5" toJunction="J3" end="300" vehsPerHour="47.571311543744855" departLane="free"/>
  <flow id="JF66308" begin="240" fromJunction="J5" toJunction="J0" end="300" vehsPerHour="37.84945551218916" departLane="free"/>
  <flow id="JF66309" begin="240" fromJunction="J6" toJunction="J3" end="300" vehsPerHour="67.96062092176801" departLane="free"/>
  <flow id="JF66310" begin="240" fromJunction="J6" toJunction="J0" end="300" vehsPerHour="33.951761640301584" departLane="free"/>
  <flow id="JF66311" begin="300" fromJunction="J3" toJunction="J0" end="360" vehsPerHour="518.5915122639644" departLane="free"/>
  <flow id="JF66312" begin="300" fromJunction="J0" toJunction="J3" end="360" vehsPerHour="379.6045937306346" departLane="free"/>
  <flow id="JF66313" begin="300" fromJunction="J3" toJunction="J4" end="360" vehsPerHour="12.977966870032162" departLane="free"/>
  <flow id="JF66314" begin="300" fromJunction="J3" toJunction="J7" end="360" vehsPerHour="35.61572238884536" departLane="free"/>
  <flow id="JF66315" begin="300" fromJunction="J3" toJunction="J5" end="360" vehsPerHour="116.21325607980087" departLane="free"/>
  <flow id="JF66316" begin="300" fromJunction="J3" toJunction="J6" end="360" vehsPerHour="28.03516422811847" departLane="free"/>
  <flow id="JF66317" begin="300" fromJunction="J0" toJunction="J4" end="360" vehsPerHour="8.58441018341544" departLane="free"/>
  <flow id="JF66318" begin="300" fromJunction="J0" toJunction="J7" end="360" vehsPerHour="101.45275514300897" departLane="free"/>
  <flow id="JF66319" begin="300" fromJunction="J0" toJunction="J5" end="360" vehsPerHour="10.338653389734638" departLane="free"/>
  <flow id="JF66320" begin="300" fromJunction="J0" toJunction="J6" end="360" vehsPerHour="83.64881880468053" departLane="free"/>
  <flow id="JF66321" begin="360" fromJunction="J3" toJunction="J0" end="420" vehsPerHour="261.98262695321927" departLane="free"/>
  <flow id="JF66322" begin="360" fromJunction="J0" toJunction="J3" end="420" vehsPerHour="90.3899106226593" departLane="free"/>
  <flow id="JF66323" begin="360" fromJunction="J3" toJunction="J4" end="420" vehsPerHour="91.67999695823616" departLane="free"/>
  <flow id="JF66324" begin="360" fromJunction="J3" toJunction="J7" end="420" vehsPerHour="35.63884433732036" departLane="free"/>
  <flow id="JF66325" begin="360" fromJunction="J3" toJunction="J5" end="420" vehsPerHour="61.00028371877527" departLane="free"/>
  <flow id="JF66326" begin="360" fromJunction="J3" toJunction="J6" end="420" vehsPerHour="88.55589846845638" departLane="free"/>
  <flow id="JF66327" begin="360" fromJunction="J0" toJunction="J4" end="420" vehsPerHour="16.870086885090213" departLane="free"/>
  <flow id="JF66328" begin="360" fromJunction="J0" toJunction="J7" end="420" vehsPerHour="93.41775813976248" departLane="free"/>
  <flow id="JF66329" begin="360" fromJunction="J0" toJunction="J5" end="420" vehsPerHour="46.00221799457029" departLane="free"/>
  <flow id="JF66330" begin="360" fromJunction="J0" toJunction="J6" end="420" vehsPerHour="121.21398281838697" departLane="free"/>
  <flow id="JF66331" begin="420" fromJunction="J3" toJunction="J0" end="480" vehsPerHour="256.2192444549568" departLane="free"/>
  <flow id="JF66332" begin="420" fromJunction="J0" toJunction="J3" end="480" vehsPerHour="359.9720016639641" departLane="free"/>
  <flow id="JF66333" begin="420" fromJunction="J3" toJunction="J4" end="480" vehsPerHour="30.04335609688018" departLane="free"/>
  <flow id="JF66334" begin="420" fromJunction="J3" toJunction="J7" end="480" vehsPerHour="120.1088016388859" departLane="free"/>
  <flow id="JF66335" begin="420" fromJunction="J3" toJunction="J5" end="480" vehsPerHour="132.15515994033314" departLane="free"/>
  <flow id="JF66336" begin="420" fromJunction="J3" toJunction="J6" end="480" vehsPerHour="57.5356407773258" departLane="free"/>
  <flow id="JF66337" begin="420" fromJunction="J0" toJunction="J4" end="480" vehsPerHour="75.64386627696189" departLane="free"/>
  <flow id="JF66338" begin="420" fromJunction="J0" toJunction="J7" end="480" vehsPerHour="85.0135235370499" departLane="free"/>
  <flow id="JF66339" begin="420" fromJunction="J0" toJunction="J5" end="480" vehsPerHour="49.69789070168227" departLane="free"/>
  <flow id="JF66340" begin="420" fromJunction="J0" toJunction="J6" end="480" vehsPerHour="24.28024549153436" departLane="free"/>
  <flow id="JF66341" begin="420" fromJunction="J4" toJunction="J7" end="480" vehsPerHour="29.12734853014566" departLane="free"/>
  <flow id="JF66342" begin="420" fromJunction="J4" toJunction="J5" end="480" vehsPerHour="49.296042710272964" departLane="free"/>
  <flow id="JF66343" begin="420" fromJunction="J4" toJunction="J6" end="480" vehsPerHour="8.017463444504978" departLane="free"/>
  <flow id="JF66344" begin="420" fromJunction="J7" toJunction="J4" end="480" vehsPerHour="31.96028164263141" departLane="free"/>
  <flow id="JF66345" begin="420" fromJunction="J7" toJunction="J5" end="480" vehsPerHour="49.17518952042532" departLane="free"/>
  <flow id="JF66346" begin="420" fromJunction="J7" toJunction="J6" end="480" vehsPerHour="44.31619262391979" departLane="free"/>
  <flow id="JF66347" begin="420" fromJunction="J5" toJunction="J4" end="480" vehsPerHour="40.69863335576686" departLane="free"/>
  <flow id="JF66348" begin="420" fromJunction="J5" toJunction="J7" end="480" vehsPerHour="7.999228426838306" departLane="free"/>
  <flow id="JF66349" begin="420" fromJunction="J5" toJunction="J6" end="480" vehsPerHour="33.24211504668174" departLane="free"/>
  <flow id="JF66350" begin="420" fromJunction="J6" toJunction="J4" end="480" vehsPerHour="20.367348923232413" departLane="free"/>
  <flow id="JF66351" begin="420" fromJunction="J6" toJunction="J7" end="480" vehsPerHour="53.16737106477322" departLane="free"/>
  <flow id="JF66352" begin="420" fromJunction="J6" toJunction="J5" end="480" vehsPerHour="24.217562040586262" departLane="free"/>
  <flow id="JF66353" begin="420" fromJunction="J4" toJunction="J3" end="480" vehsPerHour="50.43552873622989" departLane="free"/>
  <flow id="JF66354" begin="420" fromJunction="J4" toJunction="J0" end="480" vehsPerHour="16.751117091290006" departLane="free"/>
  <flow id="JF66355" begin="420" fromJunction="J7" toJunction="J3" end="480" vehsPerHour="10.397537339821103" departLane="free"/>
  <flow id="JF66356" begin="420" fromJunction="J7" toJunction="J0" end="480" vehsPerHour="25.54269636119192" departLane="free"/>
  <flow id="JF66357" begin="420" fromJunction="J5" toJunction="J3" end="480" vehsPerHour="5.128055037812431" departLane="free"/>
  <flow id="JF66358" begin="420" fromJunction="J5" toJunction="J0" end="480" vehsPerHour="26.559789303772245" departLane="free"/>
  <flow id="JF66359" begin="420" fromJunction="J6" toJunction="J3" end="480" vehsPerHour="46.66012921210964" departLane="free"/>
  <flow id="JF66360" begin="420" fromJunction="J6" toJunction="J0" end="480" vehsPerHour="30.329111443664996" departLane="free"/>
  <flow id="JF66361" begin="480" fromJunction="J3" toJunction="J0" end="540" vehsPerHour="487.626482394003" departLane="free"/>
  <flow id="JF66362" begin="480" fromJunction="J0" toJunction="J3" end="540" vehsPerHour="285.83793929267785" departLane="free"/>
  <flow id="JF66363" begin="480" fromJunction="J3" toJunction="J4" end="540" vehsPerHour="128.36291119512666" departLane="free"/>
  <flow id="JF66364" begin="480" fromJunction="J3" toJunction="J7" end="540" vehsPerHour="55.79583144662637" departLane="free"/>
  <flow id="JF66365" begin="480" fromJunction="J3" toJunction="J5" end="540" vehsPerHour="35.47339046135933" departLane="free"/>
  <flow id="JF66366" begin="480" fromJunction="J3" toJunction="J6" end="540" vehsPerHour="15.289704371203737" departLane="free"/>
  <flow id="JF66367" begin="480" fromJunction="J0" toJunction="J4" end="540" vehsPerHour="120.41390429034085" departLane="free"/>
  <flow id="JF66368" begin="480" fromJunction="J0" toJunction="J7" end="540" vehsPerHour="87.23440917000646" departLane="free"/>
  <flow id="JF66369" begin="480" fromJunction="J0" toJunction="J5" end="540" vehsPerHour="11.786071817774252" departLane="free"/>
  <flow id="JF66370" begin="480" fromJunction="J0" toJunction="J6" end="540" vehsPerHour="109.74139528568602" departLane="free"/>
  <flow id="JF66371" begin="480" fromJunction="J4" toJunction="J7" end="540" vehsPerHour="0.9707723056931353" departLane="free"/>
  <flow id="JF66372" begin="480" fromJunction="J4" toJunction="J5" end="540" vehsPerHour="57.51643153288687" departLane="free"/>
  <flow id="JF66373" begin="480" fromJunction="J4" toJunction="J6" end="540" vehsPerHour="19.670378578783854" departLane="free"/>
  <flow id="JF66374" begin="480" fromJunction="J7" toJunction="J4" end="540" vehsPerHour="36.53162408202089" departLane="free"/>
  <flow id="JF66375" begin="480" fromJunction="J7" toJunction="J5" end="540" vehsPerHour="10.683733709472587" departLane="free"/>
  <flow id="JF66376" begin="480" fromJunction="J7" toJunction="J6" end="540" vehsPerHour="34.20615628168196" departLane="free"/>
  <flow id="JF66377" begin="480" fromJunction="J5" toJunction="J4" end="540" vehsPerHour="50.62349743344858" departLane="free"/>
  <flow id="JF66378" begin="480" fromJunction="J5" toJunction="J7" end="540" vehsPerHour="30.21494865797783" departLane="free"/>
  <flow id="JF66379" begin="480" fromJunction="J5" toJunction="J6" end="540" vehsPerHour="30.15976470331056" departLane="free"/>
  <flow id="JF66380" begin="480" fromJunction="J6" toJunction="J4" end="540" vehsPerHour="65.26810520518583" departLane="free"/>
  <flow id="JF66381" begin="480" fromJunction="J6" toJunction="J7" end="540" vehsPerHour="13.222587229227585" departLane="free"/>
  <flow id="JF66382" begin="480" fromJunction="J6" toJunction="J5" end="540" vehsPerHour="64.48929117237947" departLane="free"/>
  <flow id="JF66383" begin="480" fromJunction="J4" toJunction="J3" end="540" vehsPerHour="3.6132522336258686" departLane="free"/>
  <flow id="JF66384" begin="480" fromJunction="J4" toJunction="J0" end="540" vehsPerHour="55.5006209505056" departLane="free"/>
  <flow id="JF66385" begin="480" fromJunction="J7" toJunction="J3" end="540" vehsPerHour="59.89180918158613" departLane="free"/>
  <flow id="JF66386" begin="480" fromJunction="J7" toJunction="J0" end="540" vehsPerHour="36.18267170817733" departLane="free"/>
  <flow id="JF66387" begin="480" fromJunction="J5" toJunction="J3" end="540" vehsPerHour="12.634403871315023" departLane="free"/>
  <flow id="JF66388" begin="480" fromJunction="J5" toJunction="J0" end="540" vehsPerHour="57.95940277365375" departLane="free"/>
  <flow id="JF66389" begin="480" fromJunction="J6" toJunction="J3" end="540" vehsPerHour="56.76399757796695" departLane="free"/>
  <flow id="JF66390" begin="480" fromJunction="J6" toJunction="J0" end="540" vehsPerHour="51.455810576287206" departLane="free"/>
  <flow id="JF66391" begin="540" fromJunction="J3" toJunction="J0" end="600" vehsPerHour="185.73891983878718" departLane="free"/>
  <flow id="JF66392" begin="540" fromJunction="J0" toJunction="J3" end="600" vehsPerHour="275.84811389283465" departLane="free"/>
  <flow id="JF66393" begin="540" fromJunction="J3" toJunction="J4" end="600" vehsPerHour="122.00820932374016" departLane="free"/>
  <flow id="JF66394" begin="540" fromJunction="J3" toJunction="J7" end="600" vehsPerHour="87.61594178474378" departLane="free"/>
  <flow id="JF66395" begin="540" fromJunction="J3" toJunction="J5" end="600" vehsPerHour="21.262969903644343" departLane="free"/>
  <flow id="JF66396" begin="540" fromJunction="J3" toJunction="J6" end="600" vehsPerHour="9.78183294611529" departLane="free"/>
  <flow id="JF66397" begin="540" fromJunction="J0" toJunction="J4" end="600" vehsPerHour="86.38052130021885" departLane="free"/>
  <flow id="JF66398" begin="540" fromJunction="J0" toJunction="J7" end="600" vehsPerHour="11.78280257778674" departLane="free"/>
  <flow id="JF66399" begin="540" fromJunction="J0" toJunction="J5" end="600" vehsPerHour="56.74644000782096" departLane="free"/>
  <flow id="JF66400" begin="540" fromJunction="J0" toJunction="J6" end="600" vehsPerHour="67.91580116409693" departLane="free"/>
  <flow id="JF66401" begin="540" fromJunction="J4" toJunction="J7" end="600" vehsPerHour="38.385411054455474" departLane="free"/>
  <flow id="JF66402" begin="540" fromJunction="J4" toJunction="J5" end="600" vehsPerHour="2.41090669742185" departLane="free"/>
  <flow id="JF66403" begin="540" fromJunction="J4" toJunction="J6" end="600" vehsPerHour="3.546029259444141" departLane="free"/>
  <flow id="JF66404" begin="540" fromJunction="J7" toJunction="J4" end="600" vehsPerHour="38.66147185923066" departLane="free"/>
  <flow id="JF66405" begin="540" fromJunction="J7" toJunction="J5" end="600" vehsPerHour="4.533826485754733" departLane="free"/>
  <flow id="JF66406" begin="540" fromJunction="J7" toJunction="J6" end="600" vehsPerHour="55.44424733027392" departLane="free"/>
  <flow id="JF66407" begin="540" fromJunction="J5" toJunction="J4" end="600" vehsPerHour="42.88928596741114" departLane="free"/>
  <flow id="JF66408" begin="540" fromJunction="J5" toJunction="J7" end="600" vehsPerHour="65.52023069588348" departLane="free"/>
  <flow id="JF66409" begin="540" fromJunction="J5" toJunction="J6" end="600" vehsPerHour="64.25925112292508" departLane="free"/>
  <flow id="JF66410" begin="540" fromJunction="J6" toJunction="J4" end="600" vehsPerHour="18.09181459990854" departLane="free"/>
  <flow id="JF66411" begin="540" fromJunction="J6" toJunction="J7" end="600" vehsPerHour="29.469223955429143" departLane="free"/>
  <flow id="JF66412" begin="540" fromJunction="J6" toJunction="J5" end="600" vehsPerHour="48.6106621936305" departLane="free"/>
  <flow id="JF66413" begin="540" fromJunction="J4" toJunction="J3" end="600" vehsPerHour="9.674647451916362" departLane="free"/>
  <flow id="JF66414" begin="540" fromJunction="J4" toJunction="J0" end="600" vehsPerHour="30.307519778702517" departLane="free"/>
  <flow id="JF66415" begin="540" fromJunction="J7" toJunction="J3" end="600" vehsPerHour="37.879590617695065" departLane="free"/>
  <flow id="JF66416" begin="540" fromJunction="J7" toJunction="J0" end="600" vehsPerHour="50.75230862858515" departLane="free"/>
  <flow id="JF66417" begin="540" fromJunction="J5" toJunction="J3" end="600" vehsPerHour="58.024621393217224" departLane="free"/>
  <flow id="JF66418" begin="540" fromJunction="J5" toJunction="J0" end="600" vehsPerHour="22.286865920524217" departLane="free"/>
  <flow id="JF66419" begin="540" fromJunction="J6" toJunction="J3" end="600" vehsPerHour="24.622364737459115" departLane="free"/>
  <flow id="JF66420" begin="540" fromJunction="J6" toJunction="J0" end="600" vehsPerHour="52.052288486153536" departLane="free"/>
  <flow id="JF66421" begin="600" fromJunction="J3" toJunction="J0" end="660" vehsPerHour="456.2208414031849" departLane="free"/>
  <flow id="JF66422" begin="600" fromJunction="J0" toJunction="J3" end="660" vehsPerHour="402.81504829215504" departLane="free"/>
  <flow id="JF66423" begin="600" fromJunction="J3" toJunction="J4" end="660" vehsPerHour="69.54793229604431" departLane="free"/>
  <flow id="JF66424" begin="600" fromJunction="J3" toJunction="J7" end="660" vehsPerHour="95.38618609590542" departLane="free"/>
  <flow id="JF66425" begin="600" fromJunction="J3" toJunction="J5" end="660" vehsPerHour="80.39762465456508" departLane="free"/>
  <flow id="JF66426" begin="600" fromJunction="J3" toJunction="J6" end="660" vehsPerHour="98.69573339742821" departLane="free"/>
  <flow id="JF66427" begin="600" fromJunction="J0" toJunction="J4" end="660" vehsPerHour="5.961542115806909" departLane="free"/>
  <flow id="JF66428" begin="600" fromJunction="J0" toJunction="J7" end="660" vehsPerHour="123.65172661763985" departLane="free"/>
  <flow id="JF66429" begin="600" fromJunction="J0" toJunction="J5" end="660" vehsPerHour="21.341866962623115" departLane="free"/>
  <flow id="JF66430" begin="600" fromJunction="J0" toJunction="J6" end="660" vehsPerHour="134.97073712022885" departLane="free"/>
  <flow id="JF66431" begin="660" fromJunction="J3" toJunction="J0" end="720" vehsPerHour="206.53130688175605" departLane="free"/>
  <flow id="JF66432" begin="660" fromJunction="J0" toJunction="J3" end="720" vehsPerHour="58.74884972873054" departLane="free"/>
  <flow id="JF66433" begin="660" fromJunction="J3" toJunction="J4" end="720" vehsPerHour="75.63376536677475" departLane="free"/>
  <flow id="JF66434" begin="660" fromJunction="J3" toJunction="J7" end="720" vehsPerHour="109.51910620478196" departLane="free"/>
  <flow id="JF66435" begin="660" fromJunction="J3" toJunction="J5" end="720" vehsPerHour="105.90126688251475" departLane="free"/>
  <flow id="JF66436" begin="660" fromJunction="J3" toJunction="J6" end="720" vehsPerHour="7.162915116644691" departLane="free"/>
  <flow id="JF66437" begin="660" fromJunction="J0" toJunction="J4" end="720" vehsPerHour="14.827832402013975" departLane="free"/>
  <flow id="JF66438" begin="660" fromJunction="J0" toJunction="J7" end="720" vehsPerHour="2.3652557624966817" departLane="free"/>
  <flow id="JF66439" begin="660" fromJunction="J0" toJunction="J5" end="720" vehsPerHour="47.383954686611055" departLane="free"/>
  <flow id="JF66440" begin="660" fromJunction="J0" toJunction="J6" end="720" vehsPerHour="51.586748396060784" departLane="free"/>
  <flow id="JF66441" begin="660" fromJunction="J4" toJunction="J7" end="720" vehsPerHour="65.88378819242728" departLane="free"/>
  <flow id="JF66442" begin="660" fromJunction="J4" toJunction="J5" end="720" vehsPerHour="8.977562543021419" departLane="free"/>
  <flow id="JF66443" begin="660" fromJunction="J4" toJunction="J6" end="720" vehsPerHour="59.21653391209738" departLane="free"/>
  <flow id="JF66444" begin="660" fromJunction="J7" toJunction="J4" end="720" vehsPerHour="65.17363087998378" departLane="free"/>
  <flow id="JF66445" begin="660" fromJunction="J7" toJunction="J5" end="720" vehsPerHour="12.334112158074" departLane="free"/>
  <flow id="JF66446" begin="660" fromJunction="J7" toJunction="J6" end="720" vehsPerHour="44.5981038582758" departLane="free"/>
  <flow id="JF66447" begin="660" fromJunction="J5" toJunction="J4" end="720" vehsPerHour="26.89431130437002" departLane="free"/>
  <flow id="JF66448" begin="660" fromJunction="J5" toJunction="J7" end="720" vehsPerHour="42.95693864939202" departLane="free"/>
  <flow id="JF66449" begin="660" fromJunction="J5" toJunction="J6" end="720" vehsPerHour="24.781372329445052" departLane="free"/>
  <flow id="JF66450" begin="660" fromJunction="J6" toJunction="J4" end="720" vehsPerHour="62.72782936349059" departLane="free"/>
  <flow id="JF66451" begin="660" fromJunction="J6" toJunction="J7" end="720" vehsPerHour="49.50025868034897" departLane="free"/>