<?xml version="1.0" encoding="UTF-8"?>
<routes xmlns:xsi="http://www.w3.org/2001/XMLSchema-instance" xsi:noNamespaceSchemaLocation="http://sumo.dlr.de/xsd/routes_file.xsd">
  <flow id="JF83830" begin="0" fromJunction="J3" toJunction="J0" end="5000" vehsPerHour="132.58713170064513" departLane="free"/>
  <flow id="JF83831" begin="0" fromJunction="J0" toJunction="J3" end="5000" vehsPerHour="127.21859173852984" departLane="free"/>
  <flow id="JF83832" begin="0" fromJunction="J3" toJunction="J5" end="5000" vehsPerHour="167.28857967192238" departLane="free"/>
  <flow id="JF83833" begin="0" fromJunction="J3" toJunction="J4" end="5000" vehsPerHour="224.760145334684" departLane="free"/>
  <flow id="JF83834" begin="0" fromJunction="J3" toJunction="J7" end="5000" vehsPerHour="70.63970833494969" departLane="free"/>
  <flow id="JF83835" begin="0" fromJunction="J3" toJunction="J6" end="5000" vehsPerHour="425.0696953696893" departLane="free"/>
  <flow id="JF83836" begin="0" fromJunction="J0" toJunction="J5" end="5000" vehsPerHour="471.4488063861187" departLane="free"/>
  <flow id="JF83837" begin="0" fromJunction="J0" toJunction="J4" end="5000" vehsPerHour="209.19622190970787" departLane="free"/>
  <flow id="JF83838" begin="0" fromJunction="J0" toJunction="J7" end="5000" vehsPerHour="492.36133684817594" departLane="free"/>
  <flow id="JF83839" begin="0" fromJunction="J0" toJunction="J6" end="5000" vehsPerHour="452.1826916724782" departLane="free"/>
  <flow id="JF83840" begin="0" fromJunction="J5" toJunction="J4" end="5000" vehsPerHour="26.334416914782906" departLane="free"/>
  <flow id="JF83841" begin="0" fromJunction="J5" toJunction="J7" end="5000" vehsPerHour="19.691078042278328" departLane="free"/>
  <flow id="JF83842" begin="0" fromJunction="J5" toJunction="J6" end="5000" vehsPerHour="29.018161409651672" departLane="free"/>
  <flow id="JF83843" begin="0" fromJunction="J4" toJunction="J5" end="5000" vehsPerHour="9.572104640532874" departLane="free"/>
  <flow id="JF83844" begin="0" fromJunction="J4" toJunction="J7" end="5000" vehsPerHour="55.33700177513191" departLane="free"/>
  <flow id="JF83845" begin="0" fromJunction="J4" toJunction="J6" end="5000" vehsPerHour="24.822288500235974" departLane="free"/>
  <flow id="JF83846" begin="0" fromJunction="J7" toJunction="J5" end="5000" vehsPerHour="65.43260563137302" departLane="free"/>
  <flow id="JF83847" begin="0" fromJunction="J7" toJunction="J4" end="5000" vehsPerHour="37.8062642587461" departLane="free"/>
  <flow id="JF83848" begin="0" fromJunction="J7" toJunction="J6" end="5000" vehsPerHour="62.820438848185184" departLane="free"/>
  <flow id="JF83849" begin="0" fromJunction="J6" toJunction="J5" end="5000" vehsPerHour="5.317486822211737" departLane="free"/>
  <flow id="JF83850" begin="0" fromJunction="J6" toJunction="J4" end="5000" vehsPerHour="3.1782193305329014" departLane="free"/>
  <flow id="JF83851" begin="0" fromJunction="J6" toJunction="J7" end="5000" vehsPerHour="45.118727792191166" departLane="free"/>
  <flow id="JF83852" begin="0" fromJunction="J5" toJunction="J3" end="5000" vehsPerHour="86.53575784122307" departLane="free"/>
  <flow id="JF83853" begin="0" fromJunction="J5" toJunction="J0" end="5000" vehsPerHour="231.29488171820395" departLane="free"/>
  <flow id="JF83854" begin="0" fromJunction="J4" toJunction="J3" end="5000" vehsPerHour="25.333010876297013" departLane="free"/>
  <flow id="JF83855" begin="0" fromJunction="J4" toJunction="J0" end="5000" vehsPerHour="60.48225943256295" departLane="free"/>
  <flow id="JF83856" begin="0" fromJunction="J7" toJunction="J3" end="5000" vehsPerHour="132.84510073592824" departLane="free"/>
  <flow id="JF83857" begin="0" fromJunction="J7" toJunction="J0" end="5000" vehsPerHour="55.28548892716882" departLane="free"/>
  <flow id="JF83858" begin="0" fromJunction="J6" toJunction="J3" end="5000" vehsPerHour="172.36742358721608" departLane="free"/>
  <flow id="JF83859" begin="0" fromJunction="J6" toJunction="J0" end="5000" vehsPerHour="48.17015037456842" departLane="free"/>
  <flow id="JF83860" begin="5000" fromJunction="J3" toJunction="J0" end="5060" vehsPerHour="111.06217319586533" departLane="free"/>
  <flow id="JF83861" begin="5000" fromJunction="J0" toJunction="J3" end="5060" vehsPerHour="25.26925488667591" departLane="free"/>
  <flow id="JF83862" begin="5000" fromJunction="J3" toJunction="J5" end="5060" vehsPerHour="54.69323551663012" departLane="free"/>
  <flow id="JF83863" begin="5000" fromJunction="J3" toJunction="J4" end="5060" vehsPerHour="72.91260707345037" departLane="free"/>
  <flow id="JF83864" begin="5000" fromJunction="J3" toJunction="J7" end="5060" vehsPerHour="4.711801992328925" departLane="free"/>
  <flow id="JF83865" begin="5000" fromJunction="J3" toJunction="J6" end="5060" vehsPerHour="62.50152796871596" departLane="free"/>
  <flow id="JF83866" begin="5000" fromJunction="J0" toJunction="J5" end="5060" vehsPerHour="24.972663051170805" departLane="free"/>
  <flow id="JF83867" begin="5000" fromJunction="J0" toJunction="J4" end="5060" vehsPerHour="90.70294530401934" departLane="free"/>
  <flow id="JF83868" begin="5000" fromJunction="J0" toJunction="J7" end="5060" vehsPerHour="62.70280008780388" departLane="free"/>
  <flow id="JF83869" begin="5000" fromJunction="J0" toJunction="J6" end="5060" vehsPerHour="23.79774381232287" departLane="free"/>
  <flow id="JF83870" begin="5060" fromJunction="J3" toJunction="J0" end="5120" vehsPerHour="76.96342191971348" departLane="free"/>
  <flow id="JF83871" begin="5060" fromJunction="J0" toJunction="J3" end="5120" vehsPerHour="70.46526175872843" departLane="free"/>
  <flow id="JF83872" begin="5060" fromJunction="J3" toJunction="J5" end="5120" vehsPerHour="85.2234894044715" departLane="free"/>
  <flow id="JF83873" begin="5060" fromJunction="J3" toJunction="J4" end="5120" vehsPerHour="40.80879326302679" departLane="free"/>
  <flow id="JF83874" begin="5060" fromJunction="J3" toJunction="J7" end="5120" vehsPerHour="53.42854238676929" departLane="free"/>
  <flow id="JF83875" begin="5060" fromJunction="J3" toJunction="J6" end="5120" vehsPerHour="126.80833080853608" departLane="free"/>
  <flow id="JF83876" begin="5060" fromJunction="J0" toJunction="J5" end="5120" vehsPerHour="77.66738796454618" departLane="free"/>
  <flow id="JF83877" begin="5060" fromJunction="J0" toJunction="J4" end="5120" vehsPerHour="133.28714835161895" departLane="free"/>
  <flow id="JF83878" begin="5060" fromJunction="J0" toJunction="J7" end="5120" vehsPerHour="128.43073798111612" departLane="free"/>
  <flow id="JF83879" begin="5060" fromJunction="J0" toJunction="J6" end="5120" vehsPerHour="79.36177373615247" departLane="free"/>
  <flow id="JF83880" begin="5060" fromJunction="J5" toJunction="J4" end="5120" vehsPerHour="16.978713233955144" departLane="free"/>
  <flow id="JF83881" begin="5060" fromJunction="J5" toJunction="J7" end="5120" vehsPerHour="26.971751599385186" departLane="free"/>
  <flow id="JF83882" begin="5060" fromJunction="J5" toJunction="J6" end="5120" vehsPerHour="1.3291691287516405" departLane="free"/>
  <flow id="JF83883" begin="5060" fromJunction="J4" toJunction="J5" end="5120" vehsPerHour="22.42005672216361" departLane="free"/>
  <flow id="JF83884" begin="5060" fromJunction="J4" toJunction="J7" end="5120" vehsPerHour="52.05567832474628" departLane="free"/>
  <flow id="JF83885" begin="5060" fromJunction="J4" toJunction="J6" end="5120" vehsPerHour="27.943524693250435" departLane="free"/>
  <flow id="JF83886" begin="5060" fromJunction="J7" toJunction="J5" end="5120" vehsPerHour="1.3145237847846605" departLane="free"/>
  <flow id="JF83887" begin="5060" fromJunction="J7" toJunction="J4" end="5120" vehsPerHour="44.092411406495856" departLane="free"/>
  <flow id="JF83888" begin="5060" fromJunction="J7" toJunction="J6" end="5120" vehsPerHour="65.18050502147527" departLane="free"/>
  <flow id="JF83889" begin="5060" fromJunction="J6" toJunction="J5" end="5120" vehsPerHour="13.281883082830504" departLane="free"/>
  <flow id="JF83890" begin="5060" fromJunction="J6" toJunction="J4" end="5120" vehsPerHour="46.5502027668256" departLane="free"/>
  <flow id="JF83891" begin="5060" fromJunction="J6" toJunction="J7" end="5120" vehsPerHour="50.53096765275394" departLane="free"/>
  <flow id="JF83892" begin="5060" fromJunction="J5" toJunction="J3" end="5120" vehsPerHour="2.8473706038473616" departLane="free"/>
  <flow id="JF83893" begin="5060" fromJunction="J5" toJunction="J0" end="5120" vehsPerHour="31.161908512805137" departLane="free"/>
  <flow id="JF83894" begin="5060" fromJunction="J4" toJunction="J3" end="5120" vehsPerHour="12.933950494755727" departLane="free"/>
  <flow id="JF83895" begin="5060" fromJunction="J4" toJunction="J0" end="5120" vehsPerHour="39.12123208350351" departLane="free"/>
  <flow id="JF83896" begin="5060" fromJunction="J7" toJunction="J3" end="5120" vehsPerHour="56.24861850063558" departLane="free"/>
  <flow id="JF83897" begin="5060" fromJunction="J7" toJunction="J0" end="5120" vehsPerHour="43.607907348394825" departLane="free"/>
  <flow id="JF83898" begin="5060" fromJunction="J6" toJunction="J3" end="5120" vehsPerHour="63.27123709254" departLane="free"/>
  <flow id="JF83899" begin="5060" fromJunction="J6" toJunction="J0" end="5120" vehsPerHour="16.01802965869022" departLane="free"/>
  <flow id="JF83900" begin="5120" fromJunction="J3" toJunction="J0" end="5180" vehsPerHour="79.05883719241771" departLane="free"/>
  <flow id="JF83901" begin="5120" fromJunction="J0" toJunction="J3" end="5180" vehsPerHour="35.76519784919696" departLane="free"/>
  <flow id="JF83902" begin="5120" fromJunction="J3" toJunction="J5" end="5180" vehsPerHour="21.830927406665825" departLane="free"/>
  <flow id="JF83903" begin="5120" fromJunction="J3" toJunction="J4" end="5180" vehsPerHour="102.16381851977611" departLane="free"/>
  <flow id="JF83904" begin="5120" fromJunction="J3" toJunction="J7" end="5180" vehsPerHour="67.2869781286858" departLane="free"/>
  <flow id="JF83905" begin="5120" fromJunction="J3" toJunction="J6" end="5180" vehsPerHour="13.702047954027595" departLane="free"/>
  <flow id="JF83906" begin="5120" fromJunction="J0" toJunction="J5" end="5180" vehsPerHour="18.04884769922678" departLane="free"/>
  <flow id="JF83907" begin="5120" fromJunction="J0" toJunction="J4" end="5180" vehsPerHour="79.73365005031421" departLane="free"/>
  <flow id="JF83908" begin="5120" fromJunction="J0" toJunction="J7" end="5180" vehsPerHour="132.7443312025294" departLane="free"/>
  <flow id="JF83909" begin="5120" fromJunction="J0" toJunction="J6" end="5180" vehsPerHour="17.60506190205273" departLane="free"/>
  <flow id="JF83910" begin="5120" fromJunction="J5" toJunction="J4" end="5180" vehsPerHour="25.22963302303288" departLane="free"/>
  <flow id="JF83911" begin="5120" fromJunction="J5" toJunction="J7" end="5180" vehsPerHour="2.5254660111778877" departLane="free"/>
  <flow id="JF83912" begin="5120" fromJunction="J5" toJunction="J6" end="5180" vehsPerHour="57.07948504073143" departLane="free"/>
  <flow id="JF83913" begin="5120" fromJunction="J4" toJunction="J5" end="5180" vehsPerHour="1.2811398918865629" departLane="free"/>
  <flow id="JF83914" begin="5120" fromJunction="J4" toJunction="J7" end="5180" vehsPerHour="54.642741866182256" departLane="free"/>
  <flow id="JF83915" begin="5120" fromJunction="J4" toJunction="J6" end="5180" vehsPerHour="55.365396676790354" departLane="free"/>
  <flow id="JF83916" begin="5120" fromJunction="J7" toJunction="J5" end="5180" vehsPerHour="24.839359290742863" departLane="free"/>
  <flow id="JF83917" begin="5120" fromJunction="J7" toJunction="J4" end="5180" vehsPerHour="62.106949283820306" departLane="free"/>
  <flow id="JF83918" begin="5120" fromJunction="J7" toJunction="J6" end="5180" vehsPerHour="7.787486602982659" departLane="free"/>
  <flow id="JF83919" begin="5120" fromJunction="J6" toJunction="J5" end="5180" vehsPerHour="30.032130568328743" departLane="free"/>
  <flow id="JF83920" begin="5120" fromJunction="J6" toJunction="J4" end="5180" vehsPerHour="0.6636765455510184" departLane="free"/>
  <flow id="JF83921" begin="5120" fromJunction="J6" toJunction="J7" end="5180" vehsPerHour="2.1000590706700484" departLane="free"/>
  <flow id="JF83922" begin="5120" fromJunction="J5" toJunction="J3" end="5180" vehsPerHour="43.35650757274866" departLane="free"/>
  <flow id="JF83923" begin="5120" fromJunction="J5" toJunction="J0" end="5180" vehsPerHour="3.925086241248747" departLane="free"/>
  <flow id="JF83924" begin="5120" fromJunction="J4" toJunction="J3" end="5180" vehsPerHour="53.81080128471501" departLane="free"/>
  <flow id="JF83925" begin="5120" fromJunction="J4" toJunction="J0" end="5180" vehsPerHour="50.444461874121416" departLane="free"/>
  <flow id="JF83926" begin="5120" fromJunction="J7" toJunction="J3" end="5180" vehsPerHour="24.511178538183913" departLane="free"/>
  <flow id="JF83927" begin="5120" fromJunction="J7" toJunction="J0" end="5180" vehsPerHour="43.983518056979385" departLane="free"/>
  <flow id="JF83928" begin="5120" fromJunction="J6" toJunction="J3" end="5180" vehsPerHour="6.60334668556991" departLane="free"/>
  <flow id="JF83929" begin="5120" fromJunction="J6" toJunction="J0" end="5180" vehsPerHour="13.61841187267217" departLane="free"/>
  <flow id="JF83930" begin="5180" fromJunction="J3" toJunction="J0" end="5240" vehsPerHour="97.73813249872853" departLane="free"/>
  <flow id="JF83931" begin="5180" fromJunction="J0" toJunction="J3" end="5240" vehsPerHour="34.41629723813004" departLane="free"/>
  <flow id="JF83932" begin="5180" fromJunction="J3" toJunction="J5" end="5240" vehsPerHour="97.87474104458344" departLane="free"/>
  <flow id="JF83933" begin="5180" fromJunction="J3" toJunction="J4" end="5240" vehsPerHour="19.215872906969768" departLane="free"/>
  <flow id="JF83934" begin="5180" fromJunction="J3" toJunction="J7" end="5240" vehsPerHour="128.09210153203404" departLane="free"/>
  <flow id="JF83935" begin="5180" fromJunction="J3" toJunction="J6" end="5240" vehsPerHour="57.74282198034301" departLane="free"/>
  <flow id="JF83936" begin="5180" fromJunction="J0" toJunction="J5" end="5240" vehsPerHour="134.7480322019149" departLane="free"/>
  <flow id="JF83937" begin="5180" fromJunction="J0" toJunction="J4" end="5240" vehsPerHour="62.52200476950506" departLane="free"/>
  <flow id="JF83938" begin="5180" fromJunction="J0" toJunction="J7" end="5240" vehsPerHour="28.236425688608392" departLane="free"/>
  <flow id="JF83939" begin="5180" fromJunction="J0" toJunction="J6" end="5240" vehsPerHour="1.226923194652761" departLane="free"/>
  <flow id="JF83940" begin="5240" fromJunction="J3" toJunction="J0" end="5300" vehsPerHour="98.4399251816232" departLane="free"/>
  <flow id="JF83941" begin="5240" fromJunction="J0" toJunction="J3" end="5300" vehsPerHour="95.10844620597305" departLane="free"/>
  <flow id="JF83942" begin="5240" fromJunction="J3" toJunction="J5" end="5300" vehsPerHour="97.5725951376414" departLane="free"/>
  <flow id="JF83943" begin="5240" fromJunction="J3" toJunction="J4" end="5300" vehsPerHour="107.42119926489886" departLane="free"/>
  <flow id="JF83944" begin="5240" fromJunction="J3" toJunction="J7" end="5300" vehsPerHour="108.01673439731356" departLane="free"/>
  <flow id="JF83945" begin="5240" fromJunction="J3" toJunction="J6" end="5300" vehsPerHour="102.60331924263976" departLane="free"/>
  <flow id="JF83946" begin="5240" fromJunction="J0" toJunction="J5" end="5300" vehsPerHour="46.69327952162317" departLane="free"/>
  <flow id="JF83947" begin="5240" fromJunction="J0" toJunction="J4" end="5300" vehsPerHour="35.788608703604574" departLane="free"/>
  <flow id="JF83948" begin="5240" fromJunction="J0" toJunction="J7" end="5300" vehsPerHour="104.64824326046076" departLane="free"/>
  <flow id="JF83949" begin="5240" fromJunction="J0" toJunction="J6" end="5300" vehsPerHour="122.22349800425879" departLane="free"/>
  <flow id="JF83950" begin="5300" fromJunction="J3" toJunction="J0" end="5360" vehsPerHour="103.404756947773" departLane="free"/>
  <flow id="JF83951" begin="5300" fromJunction="J0" toJunction="J3" end="5360" vehsPerHour="133.0799762169315" departLane="free"/>
  <flow id="JF83952" begin="5300" fromJunction="J3" toJunction="J5" end="5360" vehsPerHour="88.64995431280845" departLane="free"/>
  <flow id="JF83953" begin="5300" fromJunction="J3" toJunction="J4" end="5360" vehsPerHour="86.54327059475827" departLane="free"/>
  <flow id="JF83954" begin="5300" fromJunction="J3" toJunction="J7" end="5360" vehsPerHour="51.69446089140292" departLane="free"/>
  <flow id="JF83955" begin="5300" fromJunction="J3" toJunction="J6" end="5360" vehsPerHour="136.54025647967362" departLane="free"/>
  <flow id="JF83956" begin="5300" fromJunction="J0" toJunction="J5" end="5360" vehsPerHour="113.08129119957214" departLane="free"/>
  <flow id="JF83957" begin="5300" fromJunction="J0" toJunction="J4" end="5360" vehsPerHour="132.8182304563308" departLane="free"/>
  <flow id="JF83958" begin="5300" fromJunction="J0" toJunction="J7" end="5360" vehsPerHour="128.50450070200463" departLane="free"/>
  <flow id="JF83959" begin="5300" fromJunction="J0" toJunction="J6" end="5360" vehsPerHour="131.05587382718565" departLane="free"/>
  <flow id="JF83960" begin="5360" fromJunction="J3" toJunction="J0" end="5420" vehsPerHour="78.1093835792442" departLane="free"/>
  <flow id="JF83961" begin="5360" fromJunction="J0" toJunction="J3" end="5420" vehsPerHour="84.87229557281628" departLane="free"/>
  <flow id="JF83962" begin="5360" fromJunction="J3" toJunction="J5" end="5420" vehsPerHour="51.949148455313654" departLane="free"/>
  <flow id="JF83963" begin="5360" fromJunction="J3" toJunction="J4" end="5420" vehsPerHour="51.208688204229745" departLane="free"/>
  <flow id="JF83964" begin="5360" fromJunction="J3" toJunction="J7" end="5420" vehsPerHour="62.988391035062534" departLane="free"/>
  <flow id="JF83965" begin="5360" fromJunction="J3" toJunction="J6" end="5420" vehsPerHour="59.28385212083856" departLane="free"/>
  <flow id="JF83966" begin="5360" fromJunction="J0" toJunction="J5" end="5420" vehsPerHour="38.85476400650418" departLane="free"/>
  <flow id="JF83967" begin="5360" fromJunction="J0" toJunction="J4" end="5420" vehsPerHour="8.518039525004863" departLane="free"/>
  <flow id="JF83968" begin="5360" fromJunction="J0" toJunction="J7" end="5420" vehsPerHour="2.0949206724120186" departLane="free"/>
  <flow id="JF83969" begin="5360" fromJunction="J0" toJunction="J6" end="5420" vehsPerHour="130.64124203244018" departLane="free"/>
  <flow id="JF83970" begin="5360" fromJunction="J5" toJunction="J4" end="5420" vehsPerHour="36.32992807731644" departLane="free"/>
  <flow id="JF83971" begin="5360" fromJunction="J5" toJunction="J7" end="5420" vehsPerHour="40.7963354371513" departLane="free"/>
  <flow id="JF83972" begin="5360" fromJunction="J5" toJunction="J6" end="5420" vehsPerHour="33.26672034420919" departLane="free"/>
  <flow id="JF83973" begin="5360" fromJunction="J4" toJunction="J5" end="5420" vehsPerHour="14.39363098883648" departLane="free"/>
  <flow id="JF83974" begin="5360" fromJunction="J4" toJunction="J7" end="5420" vehsPerHour="5.539145750750477" departLane="free"/>
  <flow id="JF83975" begin="5360" fromJunction="J4" toJunction="J6" end="5420" vehsPerHour="45.19355786206822" departLane="free"/>
  <flow id="JF83976" begin="5360" fromJunction="J7" toJunction="J5" end="5420" vehsPerHour="45.054077180508884" departLane="free"/>
  <flow id="JF83977" begin="5360" fromJunction="J7" toJunction="J4" end="5420" vehsPerHour="9.874632513630155" departLane="free"/>
  <flow id="JF83978" begin="5360" fromJunction="J7" toJunction="J6" end="5420" vehsPerHour="30.608246005486997" departLane="free"/>
  <flow id="JF83979" begin="5360" fromJunction="J6" toJunction="J5" end="5420" vehsPerHour="38.12135170752092" departLane="free"/>
  <flow id="JF83980" begin="5360" fromJunction="J6" toJunction="J4" end="5420" vehsPerHour="47.287088188921786" departLane="free"/>
  <flow id="JF83981" begin="5360" fromJunction="J6" toJunction="J7" end="5420" vehsPerHour="26.0600380337985" departLane="free"/>
  <flow id="JF83982" begin="5360" fromJunction="J5" toJunction="J3" end="5420" vehsPerHour="23.381523483497833" departLane="free"/>
  <flow id="JF83983" begin="5360" fromJunction="J5" toJunction="J0" end="5420" vehsPerHour="10.162498319516763" departLane="free"/>
  <flow id="JF83984" begin="5360" fromJunction="J4" toJunction="J3" end="5420" vehsPerHour="23.25507431129194" departLane="free"/>
  <flow id="JF83985" begin="5360" fromJunction="J4" toJunction="J0" end="5420" vehsPerHour="23.915943033392004" departLane="free"/>
  <flow id="JF83986" begin="5360" fromJunction="J7" toJunction="J3" end="5420" vehsPerHour="38.14730503478625" departLane="free"/>
  <flow id="JF83987" begin="5360" fromJunction="J7" toJunction="J0" end="5420" vehsPerHour="60.98519856879289" departLane="free"/>
  <flow id="JF83988" begin="5360" fromJunction="J6" toJunction="J3" end="5420" vehsPerHour="58.54915695009221" departLane="free"/>
  <flow id="JF83989" begin="5360" fromJunction="J6" toJunction="J0" end="5420" vehsPerHour="16.69790072212967" departLane="free"/>
  <flow id="JF83990" begin="5420" fromJunction="J3" toJunction="J0" end="5480" vehsPerHour="128.6998667618841" departLane="free"/>
  <flow id="JF83991" begin="5420" fromJunction="J0" toJunction="J3" end="5480" vehsPerHour="23.678421618091637" departLane="free"/>
  <flow id="JF83992" begin="5420" fromJunction="J3" toJunction="J5" end="5480" vehsPerHour="136.4579020666691" departLane="free"/>
  <flow id="JF83993" begin="5420" fromJunction="J3" toJunction="J4" end="5480" vehsPerHour="107.82007969218405" departLane="free"/>
  <flow id="JF83994" begin="5420" fromJunction="J3" toJunction="J7" end="5480" vehsPerHour="115.75581918641807" departLane="free"/>
  <flow id="JF83995" begin="5420" fromJunction="J3" toJunction="J6" end="5480" vehsPerHour="44.35719980875196" departLane="free"/>
  <flow id="JF83996" begin="5420" fromJunction="J0" toJunction="J5" end="5480" vehsPerHour="103.33878138205377" departLane="free"/>
  <flow id="JF83997" begin="5420" fromJunction="J0" toJunction="J4" end="5480" vehsPerHour="105.60549236052609" departLane="free"/>
  <flow id="JF83998" begin="5420" fromJunction="J0" toJunction="J7" end="5480" vehsPerHour="73.38781065239411" departLane="free"/>
  <flow id="JF83999" begin="5420" fromJunction="J0" toJunction="J6" end="5480" vehsPerHour="16.492161248335943" departLane="free"/>
  <flow id="JF84000" begin="5420" fromJunction="J5" toJunction="J4" end="5480" vehsPerHour="6.823909092506395" departLane="free"/>
  <flow id="JF84001" begin="5420" fromJunction="J5" toJunction="J7" end="5480" vehsPerHour="60.55357508589806" departLane="free"/>
  <flow id="JF84002" begin="5420" fromJunction="J5" toJunction="J6" end="5480" vehsPerHour="42.09901941670542" departLane="free"/>
  <flow id="JF84003" begin="5420" fromJunction="J4" toJunction="J5" end="5480" vehsPerHour="33.5784794176561" departLane="free"/>
  <flow id="JF84004" begin="5420" fromJunction="J4" toJunction="J7" end="5480" vehsPerHour="44.434911655412776" departLane="free"/>
  <flow id="JF84005" begin="5420" fromJunction="J4" toJunction="J6" end="5480" vehsPerHour="66.78308790036529" departLane="free"/>
  <flow id="JF84006" begin="5420" fromJunction="J7" toJunction="J5" end="5480" vehsPerHour="41.621591337350665" departLane="free"/>
  <flow id="JF84007" begin="5420" fromJunction="J7" toJunction="J4" end="5480" vehsPerHour="14.596541729857728" departLane="free"/>
  <flow id="JF84008" begin="5420" fromJunction="J7" toJunction="J6" end="5480" vehsPerHour="22.181921950928533" departLane="free"/>
  <flow id="JF84009" begin="5420" fromJunction="J6" toJunction="J5" end="5480" vehsPerHour="52.125463544066555" departLane="free"/>
  <flow id="JF84010" begin="5420" fromJunction="J6" toJunction="J4" end="5480" vehsPerHour="46.96079693724476" departLane="free"/>
  <flow id="JF84011" begin="5420" fromJunction="J6" toJunction="J7" end="5480" vehsPerHour="60.605371677891554" departLane="free"/>
  <flow id="JF84012" begin="5420" fromJunction="J5" toJunction="J3" end="5480" vehsPerHour="4.006995836766895" departLane="free"/>
  <flow id="JF84013" begin="5420" fromJunction="J5" toJunction="J0" end="5480" vehsPerHour="26.973961669457477" departLane="free"/>
  <flow id="JF84014" begin="5420" fromJunction="J4" toJunction="J3" end="5480" vehsPerHour="43.56765243809199" departLane="free"/>
  <flow id="JF84015" begin="5420" fromJunction="J4" toJunction="J0" end="5480" vehsPerHour="57.92199053837722" departLane="free"/>
  <flow id="JF84016" begin="5420" fromJunction="J7" toJunction="J3" end="5480" vehsPerHour="11.14173348059277" departLane="free"/>
  <flow id="JF84017" begin="5420" fromJunction="J7" toJunction="J0" end="5480" vehsPerHour="23.082928102095767" departLane="free"/>
  <flow id="JF84018" begin="5420" fromJunction="J6" toJunction="J3" end="5480" vehsPerHour="34.59042785099074" departLane="free"/>
  <flow id="JF84019" begin="5420" fromJunction="J6" toJunction="J0" end="5480" vehsPerHour="6.015870599228744" departLane="free"/>
  <flow id="JF84020" begin="5480" fromJunction="J3" toJunction="J0" end="5540" vehsPerHour="99.4237625371173" departLane="free"/>
  <flow id="JF84021" begin="5480" fromJunction="J0" toJunction="J3" end="5540" vehsPerHour="108.48061224774402" departLane="free"/>
  <flow id="JF84022" begin="5480" fromJunction="J3" toJunction="J5" end="5540" vehsPerHour="37.43070382455853" departLane="free"/>
  <flow id="JF84023" begin="5480" fromJunction="J3" toJunction="J4" end="5540" vehsPerHour="58.3060315638257" departLane="free"/>
  <flow id="JF84024" begin="5480" fromJunction="J3" toJunction="J7" end="5540" vehsPerHour="125.75688292208322" departLane="free"/>
  <flow id="JF84025" begin="5480" fromJunction="J3" toJunction="J6" end="5540" vehsPerHour="117.98937551656293" departLane="free"/>
  <flow id="JF84026" begin="5480" fromJunction="J0" toJunction="J5" end="5540" vehsPerHour="44.83908551441566" departLane="free"/>
  <flow id="JF84027" begin="5480" fromJunction="J0" toJunction="J4" end="5540" vehsPerHour="114.7495007283437" departLane="free"/>
  <flow id="JF84028" begin="5480" fromJunction="J0" toJunction="J7" end="5540" vehsPerHour="71.56420576424105" departLane="free"/>
  <flow id="JF84029" begin="5480" fromJunction="J0" toJunction="J6" end="5540" vehsPerHour="113.64294331523071" departLane="free"/>
  <flow id="JF84030" begin="5480" fromJunction="J5" toJunction="J4" end="5540" vehsPerHour="4.87613915766289" departLane="free"/>
  <flow id="JF84031" begin="5480" fromJunction="J5" toJunction="J7" end="5540" vehsPerHour="7.6326805414128565" departLane="free"/>
  <flow id="JF84032" begin="5480" fromJunction="J5" toJunction="J6" end="5540" vehsPerHour="45.08366583362415" departLane="free"/>
  <flow id="JF84033" begin="5480" fromJunction="J4" toJunction="J5" end="5540" vehsPerHour="9.979569379189975" departLane="free"/>
  <flow id="JF84034" begin="5480" fromJunction="J4" toJunction="J7" end="5540" vehsPerHour="52.837798154660284" departLane="free"/>
  <flow id="JF84035" begin="5480" fromJunction="J4" toJunction="J6" end="5540" vehsPerHour="63.84367491522186" departLane="free"/>
  <flow id="JF84036" begin="5480" fromJunction="J7" toJunction="J5" end="5540" vehsPerHour="55.99711338494465" departLane="free"/>
  <flow id="JF84037" begin="5480" fromJunction="J7" toJunction="J4" end="5540" vehsPerHour="2.6484191190796453" departLane="free"/>
  <flow id="JF84038" begin="5480" fromJunction="J7" toJunction="J6" end="5540" vehsPerHour="16.003425651194792" departLane="free"/>
  <flow id="JF84039" begin="5480" fromJunction="J6" toJunction="J5" end="5540" vehsPerHour="25.121903966092706" departLane="free"/>
  <flow id="JF84040" begin="5480" fromJunction="J6" toJunction="J4" end="5540" vehsPerHour="30.73800059071754" departLane="free"/>
  <flow id="JF84041" begin="5480" fromJunction="J6" toJunction="J7" end="5540" vehsPerHour="3.1095201582222667" departLane="free"/>
  <flow id="JF84042" begin="5480" fromJunction="J5" toJunction="J3" end="5540" vehsPerHour="51.078306253954" departLane="free"/>
  <flow id="JF84043" begin="5480" fromJunction="J5" toJunction="J0" end="5540" vehsPerHour="39.41229044515576" departLane="free"/>
  <flow id="JF84044" begin="5480" fromJunction="J4" toJunction="J3" end="5540" vehsPerHour="68.42132852845413" departLane="free"/>
  <flow id="JF84045" begin="5480" fromJunction="J4" toJunction="J0" end="5540" vehsPerHour="26.017448026896737" departLane="free"/>
  <flow id="JF84046" begin="5480" fromJunction="J7" toJunction="J3" end="5540" vehsPerHour="5.095732608448343" departLane="free"/>
  <flow id="JF84047" begin="5480" fromJunction="J7" toJunction="J0" end="5540" vehsPerHour="19.28137609055808" departLane="free"/>
  <flow id="JF84048" begin="5480" fromJunction="J6" toJunction="J3" end="5540" vehsPerHour="20.198994980116773" departLane="free"/>
  <flow id="JF84049" begin="5480" fromJunction="J6" toJunction="J0" end="5540" vehsPerHour="26.78076256978011" departLane="free"/>
  <flow id="JF84050" begin="5540" fromJunction="J3" toJunction="J0" end="5600" vehsPerHour="94.57718407345524" departLane="free"/>
  <flow id="JF84051" begin="5540" fromJunction="J0" toJunction="J3" end="5600" vehsPerHour="63.788598093248474" departLane="free"/>
  <flow id="JF84052" begin="5540" fromJunction="J3" toJunction="J5" end="5600" vehsPerHour="91.80018396560665" departLane="free"/>
  <flow id="JF84053" begin="5540" fromJunction="J3" toJunction="J4" end="5600" vehsPerHour="113.19243232032358" departLane="free"/>
  <flow id="JF84054" begin="5540" fromJunction="J3" toJunction="J7" end="5600" vehsPerHour="39.69345436105935" departLane="free"/>
  <flow id="JF84055" begin="5540" fromJunction="J3" toJunction="J6" end="5600" vehsPerHour="64.44233713658177" departLane="free"/>
  <flow id="JF84056" begin="5540" fromJunction="J0" toJunction="J5" end="5600" vehsPerHour="66.77203644978147" departLane="free"/>