<?xml version="1.0" encoding="UTF-8"?>
<routes xmlns:xsi="http://www.w3.org/2001/XMLSchema-instance" xsi:noNamespaceSchemaLocation="http://sumo.dlr.de/xsd/routes_file.xsd">
  <flow id="JF85650" begin="0" fromJunction="J3" toJunction="J0" end="5000" vehsPerHour="55.05699725133803" departLane="free"/>
  <flow id="JF85651" begin="0" fromJunction="J0" toJunction="J3" end="5000" vehsPerHour="132.5348044784789" departLane="free"/>
  <flow id="JF85652" begin="0" fromJunction="J3" toJunction="J5" end="5000" vehsPerHour="56.2937505951659" departLane="free"/>
  <flow id="JF85653" begin="0" fromJunction="J3" toJunction="J4" end="5000" vehsPerHour="501.7195808589718" departLane="free"/>
  <flow id="JF85654" begin="0" fromJunction="J3" toJunction="J7" end="5000" vehsPerHour="32.286957680517716" departLane="free"/>
  <flow id="JF85655" begin="0" fromJunction="J3" toJunction="J6" end="5000" vehsPerHour="37.89270888426735" departLane="free"/>
  <flow id="JF85656" begin="0" fromJunction="J0" toJunction="J5" end="5000" vehsPerHour="512.7679964170864" departLane="free"/>
  <flow id="JF85657" begin="0" fromJunction="J0" toJunction="J4" end="5000" vehsPerHour="491.583123512307" departLane="free"/>
  <flow id="JF85658" begin="0" fromJunction="J0" toJunction="J7" end="5000" vehsPerHour="299.4014587579863" departLane="free"/>
  <flow id="JF85659" begin="0" fromJunction="J0" toJunction="J6" end="5000" vehsPerHour="415.03406476408554" departLane="free"/>
  <flow id="JF85660" begin="0" fromJunction="J5" toJunction="J4" end="5000" vehsPerHour="1.2400726826268091" departLane="free"/>
  <flow id="JF85661" begin="0" fromJunction="J5" toJunction="J7" end="5000" vehsPerHour="56.074549042830604" departLane="free"/>
  <flow id="JF85662" begin="0" fromJunction="J5" toJunction="J6" end="5000" vehsPerHour="50.779409408040195" departLane="free"/>
  <flow id="JF85663" begin="0" fromJunction="J4" toJunction="J5" end="5000" vehsPerHour="55.991251250973704" departLane="free"/>
  <flow id="JF85664" begin="0" fromJunction="J4" toJunction="J7" end="5000" vehsPerHour="59.32260253760896" departLane="free"/>
  <flow id="JF85665" begin="0" fromJunction="J4" toJunction="J6" end="5000" vehsPerHour="60.02456474211546" departLane="free"/>
  <flow id="JF85666" begin="0" fromJunction="J7" toJunction="J5" end="5000" vehsPerHour="1.5438830094134928" departLane="free"/>
  <flow id="JF85667" begin="0" fromJunction="J7" toJunction="J4" end="5000" vehsPerHour="19.273877632756584" departLane="free"/>
  <flow id="JF85668" begin="0" fromJunction="J7" toJunction="J6" end="5000" vehsPerHour="46.12177038813729" departLane="free"/>
  <flow id="JF85669" begin="0" fromJunction="J6" toJunction="J5" end="5000" vehsPerHour="5.830399208930009" departLane="free"/>
  <flow id="JF85670" begin="0" fromJunction="J6" toJunction="J4" end="5000" vehsPerHour="41.650338999989664" departLane="free"/>
  <flow id="JF85671" begin="0" fromJunction="J6" toJunction="J7" end="5000" vehsPerHour="13.521902006827148" departLane="free"/>
  <flow id="JF85672" begin="0" fromJunction="J5" toJunction="J3" end="5000" vehsPerHour="99.65117449813857" departLane="free"/>
  <flow id="JF85673" begin="0" fromJunction="J5" toJunction="J0" end="5000" vehsPerHour="202.64628873301635" departLane="free"/>
  <flow id="JF85674" begin="0" fromJunction="J4" toJunction="J3" end="5000" vehsPerHour="171.19012520789764" departLane="free"/>
  <flow id="JF85675" begin="0" fromJunction="J4" toJunction="J0" end="5000" vehsPerHour="159.33550063832763" departLane="free"/>
  <flow id="JF85676" begin="0" fromJunction="J7" toJunction="J3" end="5000" vehsPerHour="77.65073552971563" departLane="free"/>
  <flow id="JF85677" begin="0" fromJunction="J7" toJunction="J0" end="5000" vehsPerHour="105.31759302712453" departLane="free"/>
  <flow id="JF85678" begin="0" fromJunction="J6" toJunction="J3" end="5000" vehsPerHour="204.16186801224111" departLane="free"/>
  <flow id="JF85679" begin="0" fromJunction="J6" toJunction="J0" end="5000" vehsPerHour="258.2147927517839" departLane="free"/>
  <flow id="JF85680" begin="5000" fromJunction="J3" toJunction="J0" end="5060" vehsPerHour="67.6982895569931" departLane="free"/>
  <flow id="JF85681" begin="5000" fromJunction="J0" toJunction="J3" end="5060" vehsPerHour="50.13405380439658" departLane="free"/>
  <flow id="JF85682" begin="5000" fromJunction="J3" toJunction="J5" end="5060" vehsPerHour="52.858215393740615" departLane="free"/>
  <flow id="JF85683" begin="5000" fromJunction="J3" toJunction="J4" end="5060" vehsPerHour="89.81947384117073" departLane="free"/>
  <flow id="JF85684" begin="5000" fromJunction="J3" toJunction="J7" end="5060" vehsPerHour="38.95176829835247" departLane="free"/>
  <flow id="JF85685" begin="5000" fromJunction="J3" toJunction="J6" end="5060" vehsPerHour="49.22592235687862" departLane="free"/>
  <flow id="JF85686" begin="5000" fromJunction="J0" toJunction="J5" end="5060" vehsPerHour="117.07573425396234" departLane="free"/>
  <flow id="JF85687" begin="5000" fromJunction="J0" toJunction="J4" end="5060" vehsPerHour="100.8781537155723" departLane="free"/>
  <flow id="JF85688" begin="5000" fromJunction="J0" toJunction="J7" end="5060" vehsPerHour="47.57977530750485" departLane="free"/>
  <flow id="JF85689" begin="5000" fromJunction="J0" toJunction="J6" end="5060" vehsPerHour="94.98296394775228" departLane="free"/>
  <flow id="JF85690" begin="5000" fromJunction="J5" toJunction="J4" end="5060" vehsPerHour="55.778898277433015" departLane="free"/>
  <flow id="JF85691" begin="5000" fromJunction="J5" toJunction="J7" end="5060" vehsPerHour="46.63610344478216" departLane="free"/>
  <flow id="JF85692" begin="5000" fromJunction="J5" toJunction="J6" end="5060" vehsPerHour="9.846825476687954" departLane="free"/>
  <flow id="JF85693" begin="5000" fromJunction="J4" toJunction="J5" end="5060" vehsPerHour="66.88850141022287" departLane="free"/>
  <flow id="JF85694" begin="5000" fromJunction="J4" toJunction="J7" end="5060" vehsPerHour="18.843386490009156" departLane="free"/>
  <flow id="JF85695" begin="5000" fromJunction="J4" toJunction="J6" end="5060" vehsPerHour="58.44781779541729" departLane="free"/>
  <flow id="JF85696" begin="5000" fromJunction="J7" toJunction="J5" end="5060" vehsPerHour="55.8473190893351" departLane="free"/>
  <flow id="JF85697" begin="5000" fromJunction="J7" toJunction="J4" end="5060" vehsPerHour="59.53664622224373" departLane="free"/>
  <flow id="JF85698" begin="5000" fromJunction="J7" toJunction="J6" end="5060" vehsPerHour="34.38340631399541" departLane="free"/>
  <flow id="JF85699" begin="5000" fromJunction="J6" toJunction="J5" end="5060" vehsPerHour="20.92492811378063" departLane="free"/>
  <flow id="JF85700" begin="5000" fromJunction="J6" toJunction="J4" end="5060" vehsPerHour="29.464263430666538" departLane="free"/>
  <flow id="JF85701" begin="5000" fromJunction="J6" toJunction="J7" end="5060" vehsPerHour="7.571743262004317" departLane="free"/>
  <flow id="JF85702" begin="5000" fromJunction="J5" toJunction="J3" end="5060" vehsPerHour="18.672073339841237" departLane="free"/>
  <flow id="JF85703" begin="5000" fromJunction="J5" toJunction="J0" end="5060" vehsPerHour="5.267875465781168" departLane="free"/>
  <flow id="JF85704" begin="5000" fromJunction="J4" toJunction="J3" end="5060" vehsPerHour="58.40423019880788" departLane="free"/>
  <flow id="JF85705" begin="5000" fromJunction="J4" toJunction="J0" end="5060" vehsPerHour="59.36558061405259" departLane="free"/>
  <flow id="JF85706" begin="5000" fromJunction="J7" toJunction="J3" end="5060" vehsPerHour="20.814719323419187" departLane="free"/>
  <flow id="JF85707" begin="5000" fromJunction="J7" toJunction="J0" end="5060" vehsPerHour="39.079880806822985" departLane="free"/>
  <flow id="JF85708" begin="5000" fromJunction="J6" toJunction="J3" end="5060" vehsPerHour="38.656868478490374" departLane="free"/>
  <flow id="JF85709" begin="5000" fromJunction="J6" toJunction="J0" end="5060" vehsPerHour="62.12054986746277" departLane="free"/>
  <flow id="JF85710" begin="5060" fromJunction="J3" toJunction="J0" end="5120" vehsPerHour="4.997081256506816" departLane="free"/>
  <flow id="JF85711" begin="5060" fromJunction="J0" toJunction="J3" end="5120" vehsPerHour="109.60314587135653" departLane="free"/>
  <flow id="JF85712" begin="5060" fromJunction="J3" toJunction="J5" end="5120" vehsPerHour="47.178082901384904" departLane="free"/>
  <flow id="JF85713" begin="5060" fromJunction="J3" toJunction="J4" end="5120" vehsPerHour="40.90027533720758" departLane="free"/>
  <flow id="JF85714" begin="5060" fromJunction="J3" toJunction="J7" end="5120" vehsPerHour="129.81612781239295" departLane="free"/>
  <flow id="JF85715" begin="5060" fromJunction="J3" toJunction="J6" end="5120" vehsPerHour="38.67795169162865" departLane="free"/>
  <flow id="JF85716" begin="5060" fromJunction="J0" toJunction="J5" end="5120" vehsPerHour="1.107629311552829" departLane="free"/>
  <flow id="JF85717" begin="5060" fromJunction="J0" toJunction="J4" end="5120" vehsPerHour="97.10673054626481" departLane="free"/>
  <flow id="JF85718" begin="5060" fromJunction="J0" toJunction="J7" end="5120" vehsPerHour="54.763542594580116" departLane="free"/>
  <flow id="JF85719" begin="5060" fromJunction="J0" toJunction="J6" end="5120" vehsPerHour="14.373567769625868" departLane="free"/>
  <flow id="JF85720" begin="5060" fromJunction="J5" toJunction="J4" end="5120" vehsPerHour="29.438983578746555" departLane="free"/>
  <flow id="JF85721" begin="5060" fromJunction="J5" toJunction="J7" end="5120" vehsPerHour="54.370791668384065" departLane="free"/>
  <flow id="JF85722" begin="5060" fromJunction="J5" toJunction="J6" end="5120" vehsPerHour="49.41045021700245" departLane="free"/>
  <flow id="JF85723" begin="5060" fromJunction="J4" toJunction="J5" end="5120" vehsPerHour="67.77924443641135" departLane="free"/>
  <flow id="JF85724" begin="5060" fromJunction="J4" toJunction="J7" end="5120" vehsPerHour="35.231877721435566" departLane="free"/>
  <flow id="JF85725" begin="5060" fromJunction="J4" toJunction="J6" end="5120" vehsPerHour="43.605631577968474" departLane="free"/>
  <flow id="JF85726" begin="5060" fromJunction="J7" toJunction="J5" end="5120" vehsPerHour="20.89372552882544" departLane="free"/>
  <flow id="JF85727" begin="5060" fromJunction="J7" toJunction="J4" end="5120" vehsPerHour="21.65410123187169" departLane="free"/>
  <flow id="JF85728" begin="5060" fromJunction="J7" toJunction="J6" end="5120" vehsPerHour="45.008879490888134" departLane="free"/>
  <flow id="JF85729" begin="5060" fromJunction="J6" toJunction="J5" end="5120" vehsPerHour="63.98549495537109" departLane="free"/>
  <flow id="JF85730" begin="5060" fromJunction="J6" toJunction="J4" end="5120" vehsPerHour="56.8417000166004" departLane="free"/>
  <flow id="JF85731" begin="5060" fromJunction="J6" toJunction="J7" end="5120" vehsPerHour="62.03455088994115" departLane="free"/>
  <flow id="JF85732" begin="5060" fromJunction="J5" toJunction="J3" end="5120" vehsPerHour="40.32224730604589" departLane="free"/>
  <flow id="JF85733" begin="5060" fromJunction="J5" toJunction="J0" end="5120" vehsPerHour="46.06101681729082" departLane="free"/>
  <flow id="JF85734" begin="5060" fromJunction="J4" toJunction="J3" end="5120" vehsPerHour="68.5717248438568" departLane="free"/>
  <flow id="JF85735" begin="5060" fromJunction="J4" toJunction="J0" end="5120" vehsPerHour="38.06777179189253" departLane="free"/>
  <flow id="JF85736" begin="5060" fromJunction="J7" toJunction="J3" end="5120" vehsPerHour="6.629628545331653" departLane="free"/>
  <flow id="JF85737" begin="5060" fromJunction="J7" toJunction="J0" end="5120" vehsPerHour="19.04230867947887" departLane="free"/>
  <flow id="JF85738" begin="5060" fromJunction="J6" toJunction="J3" end="5120" vehsPerHour="16.649255763063657" departLane="free"/>
  <flow id="JF85739" begin="5060" fromJunction="J6" toJunction="J0" end="5120" vehsPerHour="9.630745928488642" departLane="free"/>
  <flow id="JF85740" begin="5120" fromJunction="J3" toJunction="J0" end="5180" vehsPerHour="97.5613645922128" departLane="free"/>
  <flow id="JF85741" begin="5120" fromJunction="J0" toJunction="J3" end="5180" vehsPerHour="85.22719847771866" departLane="free"/>
  <flow id="JF85742" begin="5120" fromJunction="J3" toJunction="J5" end="5180" vehsPerHour="38.28138456231357" departLane="free"/>
  <flow id="JF85743" begin="5120" fromJunction="J3" toJunction="J4" end="5180" vehsPerHour="6.977289469118227" departLane="free"/>
  <flow id="JF85744" begin="5120" fromJunction="J3" toJunction="J7" end="5180" vehsPerHour="89.31754128014221" departLane="free"/>
  <flow id="JF85745" begin="5120" fromJunction="J3" toJunction="J6" end="5180" vehsPerHour="39.65937930391442" departLane="free"/>
  <flow id="JF85746" begin="5120" fromJunction="J0" toJunction="J5" end="5180" vehsPerHour="80.38751183914191" departLane="free"/>
  <flow id="JF85747" begin="5120" fromJunction="J0" toJunction="J4" end="5180" vehsPerHour="132.81495830648544" departLane="free"/>
  <flow id="JF85748" begin="5120" fromJunction="J0" toJunction="J7" end="5180" vehsPerHour="78.39937907546842" departLane="free"/>
  <flow id="JF85749" begin="5120" fromJunction="J0" toJunction="J6" end="5180" vehsPerHour="73.25974506485035" departLane="free"/>
  <flow id="JF85750" begin="5180" fromJunction="J3" toJunction="J0" end="5240" vehsPerHour="48.524774497828595" departLane="free"/>
  <flow id="JF85751" begin="5180" fromJunction="J0" toJunction="J3" end="5240" vehsPerHour="95.32286594919087" departLane="free"/>
  <flow id="JF85752" begin="5180" fromJunction="J3" toJunction="J5" end="5240" vehsPerHour="94.47126056118881" departLane="free"/>
  <flow id="JF85753" begin="5180" fromJunction="J3" toJunction="J4" end="5240" vehsPerHour="51.46718767639332" departLane="free"/>
  <flow id="JF85754" begin="5180" fromJunction="J3" toJunction="J7" end="5240" vehsPerHour="30.664331106391078" departLane="free"/>
  <flow id="JF85755" begin="5180" fromJunction="J3" toJunction="J6" end="5240" vehsPerHour="57.46616742539628" departLane="free"/>
  <flow id="JF85756" begin="5180" fromJunction="J0" toJunction="J5" end="5240" vehsPerHour="105.63276186395112" departLane="free"/>
  <flow id="JF85757" begin="5180" fromJunction="J0" toJunction="J4" end="5240" vehsPerHour="49.70493773730143" departLane="free"/>
  <flow id="JF85758" begin="5180" fromJunction="J0" toJunction="J7" end="5240" vehsPerHour="107.71179596655595" departLane="free"/>
  <flow id="JF85759" begin="5180" fromJunction="J0" toJunction="J6" end="5240" vehsPerHour="117.25020649297845" departLane="free"/>
  <flow id="JF85760" begin="5180" fromJunction="J5" toJunction="J4" end="5240" vehsPerHour="64.41827959828265" departLane="free"/>
  <flow id="JF85761" begin="5180" fromJunction="J5" toJunction="J7" end="5240" vehsPerHour="24.230971962549273" departLane="free"/>
  <flow id="JF85762" begin="5180" fromJunction="J5" toJunction="J6" end="5240" vehsPerHour="1.783100085868989" departLane="free"/>
  <flow id="JF85763" begin="5180" fromJunction="J4" toJunction="J5" end="5240" vehsPerHour="39.46672604179464" departLane="free"/>
  <flow id="JF85764" begin="5180" fromJunction="J4" toJunction="J7" end="5240" vehsPerHour="3.1641150493300443" departLane="free"/>
  <flow id="JF85765" begin="5180" fromJunction="J4" toJunction="J6" end="5240" vehsPerHour="18.47496911291475" departLane="free"/>
  <flow id="JF85766" begin="5180" fromJunction="J7" toJunction="J5" end="5240" vehsPerHour="1.8873175394170756" departLane="free"/>
  <flow id="JF85767" begin="5180" fromJunction="J7" toJunction="J4" end="5240" vehsPerHour="16.055823792491044" departLane="free"/>
  <flow id="JF85768" begin="5180" fromJunction="J7" toJunction="J6" end="5240" vehsPerHour="14.328162750208003" departLane="free"/>
  <flow id="JF85769" begin="5180" fromJunction="J6" toJunction="J5" end="5240" vehsPerHour="26.041272125729954" departLane="free"/>
  <flow id="JF85770" begin="5180" fromJunction="J6" toJunction="J4" end="5240" vehsPerHour="22.476600745134416" departLane="free"/>
  <flow id="JF85771" begin="5180" fromJunction="J6" toJunction="J7" end="5240" vehsPerHour="9.895366130762145" departLane="free"/>
  <flow id="JF85772" begin="5180" fromJunction="J5" toJunction="J3" end="5240" vehsPerHour="20.848206953239632" departLane="free"/>
  <flow id="JF85773" begin="5180" fromJunction="J5" toJunction="J0" end="5240" vehsPerHour="1.7209924204181486" departLane="free"/>
  <flow id="JF85774" begin="5180" fromJunction="J4" toJunction="J3" end="5240" vehsPerHour="22.116668251863445" departLane="free"/>
  <flow id="JF85775" begin="5180" fromJunction="J4" toJunction="J0" end="5240" vehsPerHour="44.64317565735572" departLane="free"/>
  <flow id="JF85776" begin="5180" fromJunction="J7" toJunction="J3" end="5240" vehsPerHour="66.11908227462939" departLane="free"/>
  <flow id="JF85777" begin="5180" fromJunction="J7" toJunction="J0" end="5240" vehsPerHour="54.958383182268754" departLane="free"/>
  <flow id="JF85778" begin="5180" fromJunction="J6" toJunction="J3" end="5240" vehsPerHour="54.42728832927524" departLane="free"/>
  <flow id="JF85779" begin="5180" fromJunction="J6" toJunction="J0" end="5240" vehsPerHour="14.329129185621586" departLane="free"/>
  <flow id="JF85780" begin="5240" fromJunction="J3" toJunction="J0" end="5300" vehsPerHour="120.21401938044497" departLane="free"/>
  <flow id="JF85781" begin="5240" fromJunction="J0" toJunction="J3" end="5300" vehsPerHour="27.51175296395308" departLane="free"/>
  <flow id="JF85782" begin="5240" fromJunction="J3" toJunction="J5" end="5300" vehsPerHour="3.0294201554953197" departLane="free"/>
  <flow id="JF85783" begin="5240" fromJunction="J3" toJunction="J4" end="5300" vehsPerHour="114.652799692614" departLane="free"/>
  <flow id="JF85784" begin="5240" fromJunction="J3" toJunction="J7" end="5300" vehsPerHour="79.58674249613351" departLane="free"/>
  <flow id="JF85785" begin="5240" fromJunction="J3" toJunction="J6" end="5300" vehsPerHour="70.7635517450367" departLane="free"/>
  <flow id="JF85786" begin="5240" fromJunction="J0" toJunction="J5" end="5300" vehsPerHour="101.94546925211073" departLane="free"/>
  <flow id="JF85787" begin="5240" fromJunction="J0" toJunction="J4" end="5300" vehsPerHour="49.17991195507547" departLane="free"/>
  <flow id="JF85788" begin="5240" fromJunction="J0" toJunction="J7" end="5300" vehsPerHour="3.784338161022264" departLane="free"/>
  <flow id="JF85789" begin="5240" fromJunction="J0" toJunction="J6" end="5300" vehsPerHour="78.8761923127946" departLane="free"/>
  <flow id="JF85790" begin="5300" fromJunction="J3" toJunction="J0" end="5360" vehsPerHour="6.829373437441177" departLane="free"/>
  <flow id="JF85791" begin="5300" fromJunction="J0" toJunction="J3" end="5360" vehsPerHour="61.08048336311034" departLane="free"/>
  <flow id="JF85792" begin="5300" fromJunction="J3" toJunction="J5" end="5360" vehsPerHour="14.730269029201528" departLane="free"/>
  <flow id="JF85793" begin="5300" fromJunction="J3" toJunction="J4" end="5360" vehsPerHour="9.213212555556677" departLane="free"/>
  <flow id="JF85794" begin="5300" fromJunction="J3" toJunction="J7" end="5360" vehsPerHour="82.09680559731969" departLane="free"/>
  <flow id="JF85795" begin="5300" fromJunction="J3" toJunction="J6" end="5360" vehsPerHour="81.12053069175606" departLane="free"/>
  <flow id="JF85796" begin="5300" fromJunction="J0" toJunction="J5" end="5360" vehsPerHour="35.48336741696337" departLane="free"/>
  <flow id="JF85797" begin="5300" fromJunction="J0" toJunction="J4" end="5360" vehsPerHour="133.64221753674673" departLane="free"/>
  <flow id="JF85798" begin="5300" fromJunction="J0" toJunction="J7" end="5360" vehsPerHour="31.945140673337132" departLane="free"/>
  <flow id="JF85799" begin="5300" fromJunction="J0" toJunction="J6" end="5360" vehsPerHour="102.42528237720389" departLane="free"/>
  <flow id="JF85800" begin="5300" fromJunction="J5" toJunction="J4" end="5360" vehsPerHour="4.235541801561784" departLane="free"/>
  <flow id="JF85801" begin="5300" fromJunction="J5" toJunction="J7" end="5360" vehsPerHour="63.11890205080635" departLane="free"/>
  <flow id="JF85802" begin="5300" fromJunction="J5" toJunction="J6" end="5360" vehsPerHour="4.642681221926123" departLane="free"/>
  <flow id="JF85803" begin="5300" fromJunction="J4" toJunction="J5" end="5360" vehsPerHour="63.29371037784605" departLane="free"/>
  <flow id="JF85804" begin="5300" fromJunction="J4" toJunction="J7" end="5360" vehsPerHour="63.077447894900104" departLane="free"/>
  <flow id="JF85805" begin="5300" fromJunction="J4" toJunction="J6" end="5360" vehsPerHour="17.403245252041675" departLane="free"/>
  <flow id="JF85806" begin="5300" fromJunction="J7" toJunction="J5" end="5360" vehsPerHour="34.61177142178894" departLane="free"/>
  <flow id="JF85807" begin="5300" fromJunction="J7" toJunction="J4" end="5360" vehsPerHour="40.71007311888233" departLane="free"/>
  <flow id="JF85808" begin="5300" fromJunction="J7" toJunction="J6" end="5360" vehsPerHour="34.28303032091678" departLane="free"/>
  <flow id="JF85809" begin="5300" fromJunction="J6" toJunction="J5" end="5360" vehsPerHour="14.943548515128406" departLane="free"/>
  <flow id="JF85810" begin="5300" fromJunction="J6" toJunction="J4" end="5360" vehsPerHour="8.584769695417226" departLane="free"/>
  <flow id="JF85811" begin="5300" fromJunction="J6" toJunction="J7" end="5360" vehsPerHour="48.52440579989558" departLane="free"/>
  <flow id="JF85812" begin="5300" fromJunction="J5" toJunction="J3" end="5360" vehsPerHour="8.01052325451161" departLane="free"/>
  <flow id="JF85813" begin="5300" fromJunction="J5" toJunction="J0" end="5360" vehsPerHour="1.9495639820954969" departLane="free"/>
  <flow id="JF85814" begin="5300" fromJunction="J4" toJunction="J3" end="5360" vehsPerHour="54.77144029921514" departLane="free"/>
  <flow id="JF85815" begin="5300" fromJunction="J4" toJunction="J0" end="5360" vehsPerHour="28.626197204661118" departLane="free"/>
  <flow id="JF85816" begin="5300" fromJunction="J7" toJunction="J3" end="5360" vehsPerHour="34.72784860386396" departLane="free"/>
  <flow id="JF85817" begin="5300" fromJunction="J7" toJunction="J0" end="5360" vehsPerHour="41.569451083656155" departLane="free"/>
  <flow id="JF85818" begin="5300" fromJunction="J6" toJunction="J3" end="5360" vehsPerHour="49.94321006705107" departLane="free"/>
  <flow id="JF85819" begin="5300" fromJunction="J6" toJunction="J0" end="5360" vehsPerHour="31.739805888124696" departLane="free"/>
  <flow id="JF85820" begin="5360" fromJunction="J3" toJunction="J0" end="5420" vehsPerHour="46.059941337484126" departLane="free"/>
  <flow id="JF85821" begin="5360" fromJunction="J0" toJunction="J3" end="5420" vehsPerHour="38.57700020826694" departLane="free"/>
  <flow id="JF85822" begin="5360" fromJunction="J3" toJunction="J5" end="5420" vehsPerHour="17.645434381051217" departLane="free"/>
  <flow id="JF85823" begin="5360" fromJunction="J3" toJunction="J4" end="5420" vehsPerHour="107.24108070453238" departLane="free"/>
  <flow id="JF85824" begin="5360" fromJunction="J3" toJunction="J7" end="5420" vehsPerHour="1.2372980361678523" departLane="free"/>
  <flow id="JF85825" begin="5360" fromJunction="J3" toJunction="J6" end="5420" vehsPerHour="78.00339546662988" departLane="free"/>
  <flow id="JF85826" begin="5360" fromJunction="J0" toJunction="J5" end="5420" vehsPerHour="136.6103453982435" departLane="free"/>
  <flow id="JF85827" begin="5360" fromJunction="J0" toJunction="J4" end="5420" vehsPerHour="3.0091499255269683" departLane="free"/>
  <flow id="JF85828" begin="5360" fromJunction="J0" toJunction="J7" end="5420" vehsPerHour="134.31094675349632" departLane="free"/>
  <flow id="JF85829" begin="5360" fromJunction="J0" toJunction="J6" end="5420" vehsPerHour="128.50345740103367" departLane="free"/>
  <flow id="JF85830" begin="5360" fromJunction="J5" toJunction="J4" end="5420" vehsPerHour="23.50732406877157" departLane="free"/>
  <flow id="JF85831" begin="5360" fromJunction="J5" toJunction="J7" end="5420" vehsPerHour="60.497464776174716" departLane="free"/>
  <flow id="JF85832" begin="5360" fromJunction="J5" toJunction="J6" end="5420" vehsPerHour="16.372450588608412" departLane="free"/>
  <flow id="JF85833" begin="5360" fromJunction="J4" toJunction="J5" end="5420" vehsPerHour="62.06218507226666" departLane="free"/>
  <flow id="JF85834" begin="5360" fromJunction="J4" toJunction="J7" end="5420" vehsPerHour="1.960850919902828" departLane="free"/>
  <flow id="JF85835" begin="5360" fromJunction="J4" toJunction="J6" end="5420" vehsPerHour="56.30531569793228" departLane="free"/>
  <flow id="JF85836" begin="5360" fromJunction="J7" toJunction="J5" end="5420" vehsPerHour="16.067438148954857" departLane="free"/>
  <flow id="JF85837" begin="5360" fromJunction="J7" toJunction="J4" end="5420" vehsPerHour="68.44956168591533" departLane="free"/>
  <flow id="JF85838" begin="5360" fromJunction="J7" toJunction="J6" end="5420" vehsPerHour="65.47836096342499" departLane="free"/>
  <flow id="JF85839" begin="5360" fromJunction="J6" toJunction="J5" end="5420" vehsPerHour="9.046127165767956" departLane="free"/>
  <flow id="JF85840" begin="5360" fromJunction="J6" toJunction="J4" end="5420" vehsPerHour="40.30352408878012" departLane="free"/>
  <flow id="JF85841" begin="5360" fromJunction="J6" toJunction="J7" end="5420" vehsPerHour="45.21835774813302" departLane="free"/>
  <flow id="JF85842" begin="5360" fromJunction="J5" toJunction="J3" end="5420" vehsPerHour="67.7921701049714" departLane="free"/>
  <flow id="JF85843" begin="5360" fromJunction="J5" toJunction="J0" end="5420" vehsPerHour="8.375945866066505" departLane="free"/>
  <flow id="JF85844" begin="5360" fromJunction="J4" toJunction="J3" end="5420" vehsPerHour="55.4246526140457" departLane="free"/>
  <flow id="JF85845" begin="5360" fromJunction="J4" toJunction="J0" end="5420" vehsPerHour="67.99008519877403" departLane="free"/>
  <flow id="JF85846" begin="5360" fromJunction="J7" toJunction="J3" end="5420" vehsPerHour="10.888321276047026" departLane="free"/>
  <flow id="JF85847" begin="5360" fromJunction="J7" toJunction="J0" end="5420" vehsPerHour="16.713792389660473" departLane="free"/>
  <flow id="JF85848" begin="5360" fromJunction="J6" toJunction="J3" end="5420" vehsPerHour="48.88024419988368" departLane="free"/>
  <flow id="JF85849" begin="5360" fromJunction="J6" toJunction="J0" end="5420" vehsPerHour="40.98753529392923" departLane="free"/>
  <flow id="JF85850" begin="5420" fromJunction="J3" toJunction="J0" end="5480" vehsPerHour="104.45490696517541" departLane="free"/>
  <flow id="JF85851" begin="5420" fromJunction="J0" toJunction="J3" end="5480" vehsPerHour="21.936062719204443" departLane="free"/>
  <flow id="JF85852" begin="5420" fromJunction="J3" toJunction="J5" end="5480" vehsPerHour="12.007505050967225" departLane="free"/>
  <flow id="JF85853" begin="5420" fromJunction="J3" toJunction="J4" end="5480" vehsPerHour="126.33299999104491" departLane="free"/>
  <flow id="JF85854" begin="5420" fromJunction="J3" toJunction="J7" end="5480" vehsPerHour="129.0889114275343" departLane="free"/>
  <flow id="JF85855" begin="5420" fromJunction="J3" toJunction="J6" end="5480" vehsPerHour="95.73592364244108" departLane="free"/>
  <flow id="JF85856" begin="5420" fromJunction="J0" toJunction="J5" end="5480" vehsPerHour="60.5359594933171" departLane="free"/>
  <flow id="JF85857" begin="5420" fromJunction="J0" toJunction="J4" end="5480" vehsPerHour="128.44816541375548" departLane="free"/>
  <flow id="JF85858" begin="5420" fromJunction="J0" toJunction="J7" end="5480" vehsPerHour="46.55851993843107" departLane="free"/>
  <flow id="JF85859" begin="5420" fromJunction="J0" toJunction="J6" end="5480" vehsPerHour="57.07920723122715" departLane="free"/>
  <flow id="JF85860" begin="5420" fromJunction="J5" toJunction="J4" end="5480" vehsPerHour="59.61284835109867" departLane="free"/>
  <flow id="JF85861" begin="5420" fromJunction="J5" toJunction="J7" end="5480" vehsPerHour="22.83132875027763" departLane="free"/>
  <flow id="JF85862" begin="5420" fromJunction="J5" toJunction="J6" end="5480" vehsPerHour="35.436486529780524" departLane="free"/>
  <flow id="JF85863" begin="5420" fromJunction="J4" toJunction="J5" end="5480" vehsPerHour="33.65975742085543" departLane="free"/>
  <flow id="JF85864" begin="5420" fromJunction="J4" toJunction="J7" end="5480" vehsPerHour="51.11244694993729" departLane="free"/>
  <flow id="JF85865" begin="5420" fromJunction="J4" toJunction="J6" end="5480" vehsPerHour="32.38477584840957" departLane="free"/>
  <flow id="JF85866" begin="5420" fromJunction="J7" toJunction="J5" end="5480" vehsPerHour="54.196536129751784" departLane="free"/>
  <flow id="JF85867" begin="5420" fromJunction="J7" toJunction="J4" end="5480" vehsPerHour="42.02171515698868" departLane="free"/>
  <flow id="JF85868" begin="5420" fromJunction="J7" toJunction="J6" end="5480" vehsPerHour="18.237054811173223" departLane="free"/>
  <flow id="JF85869" begin="5420" fromJunction="J6" toJunction="J5" end="5480" vehsPerHour="36.98468433590046" departLane="free"/>
  <flow id="JF85870" begin="5420" fromJunction="J6" toJunction="J4" end="5480" vehsPerHour="66.02576800357456" departLane="free"/>
  <flow id="JF85871" begin="5420" fromJunction="J6" toJunction="J7" end="5480" vehsPerHour="64.8872014945143" departLane="free"/>
  <flow id="JF85872" begin="5420" fromJunction="J5" toJunction="J3" end="5480" vehsPerHour="32.352143310530096" departLane="free"/>
  <flow id="JF85873" begin="5420" fromJunction="J5" toJunction="J0" end="5480" vehsPerHour="35.41394476151384" departLane="free"/>
  <flow id="JF85874" begin="5420" fromJunction="J4" toJunction="J3" end="5480" vehsPerHour="43.38480687398641" departLane="free"/>
  <flow id="JF85875" begin="5420" fromJunction="J4" toJunction="J0" end="5480" vehsPerHour="41.18831037658263" departLane="free"/>
  <flow id="JF85876" begin="5420" fromJunction="J7" toJunction="J3" end="5480" vehsPerHour="45.36171332973289" departLane="free"/>