<?xml version="1.0" encoding="UTF-8"?>
<routes xmlns:xsi="http://www.w3.org/2001/XMLSchema-instance" xsi:noNamespaceSchemaLocation="http://sumo.dlr.de/xsd/routes_file.xsd">
  <flow id="JF79730" begin="0" fromJunction="J3" toJunction="J0" end="5000" vehsPerHour="129.65922329122435" departLane="free"/>
  <flow id="JF79731" begin="0" fromJunction="J0" toJunction="J3" end="5000" vehsPerHour="2.81665862427738" departLane="free"/>
  <flow id="JF79732" begin="0" fromJunction="J3" toJunction="J5" end="5000" vehsPerHour="67.47250842524417" departLane="free"/>
  <flow id="JF79733" begin="0" fromJunction="J3" toJunction="J4" end="5000" vehsPerHour="116.78123635644565" departLane="free"/>
  <flow id="JF79734" begin="0" fromJunction="J3" toJunction="J7" end="5000" vehsPerHour="13.925422028921886" departLane="free"/>
  <flow id="JF79735" begin="0" fromJunction="J3" toJunction="J6" end="5000" vehsPerHour="159.95815474449836" departLane="free"/>
  <flow id="JF79736" begin="0" fromJunction="J0" toJunction="J5" end="5000" vehsPerHour="328.8655705753831" departLane="free"/>
  <flow id="JF79737" begin="0" fromJunction="J0" toJunction="J4" end="5000" vehsPerHour="284.0561032912685" departLane="free"/>
  <flow id="JF79738" begin="0" fromJunction="J0" toJunction="J7" end="5000" vehsPerHour="192.61475798813416" departLane="free"/>
  <flow id="JF79739" begin="0" fromJunction="J0" toJunction="J6" end="5000" vehsPerHour="386.7644389234935" departLane="free"/>
  <flow id="JF79740" begin="0" fromJunction="J5" toJunction="J4" end="5000" vehsPerHour="57.81954466458978" departLane="free"/>
  <flow id="JF79741" begin="0" fromJunction="J5" toJunction="J7" end="5000" vehsPerHour="6.172702460672579" departLane="free"/>
  <flow id="JF79742" begin="0" fromJunction="J5" toJunction="J6" end="5000" vehsPerHour="15.225164742508253" departLane="free"/>
  <flow id="JF79743" begin="0" fromJunction="J4" toJunction="J5" end="5000" vehsPerHour="42.72471414231505" departLane="free"/>
  <flow id="JF79744" begin="0" fromJunction="J4" toJunction="J7" end="5000" vehsPerHour="4.7697130578166815" departLane="free"/>
  <flow id="JF79745" begin="0" fromJunction="J4" toJunction="J6" end="5000" vehsPerHour="20.857679342933466" departLane="free"/>
  <flow id="JF79746" begin="0" fromJunction="J7" toJunction="J5" end="5000" vehsPerHour="58.87129344768407" departLane="free"/>
  <flow id="JF79747" begin="0" fromJunction="J7" toJunction="J4" end="5000" vehsPerHour="20.000434946447523" departLane="free"/>
  <flow id="JF79748" begin="0" fromJunction="J7" toJunction="J6" end="5000" vehsPerHour="20.33745217114365" departLane="free"/>
  <flow id="JF79749" begin="0" fromJunction="J6" toJunction="J5" end="5000" vehsPerHour="49.66401284179105" departLane="free"/>
  <flow id="JF79750" begin="0" fromJunction="J6" toJunction="J4" end="5000" vehsPerHour="1.6190936475287017" departLane="free"/>
  <flow id="JF79751" begin="0" fromJunction="J6" toJunction="J7" end="5000" vehsPerHour="1.244960269501828" departLane="free"/>
  <flow id="JF79752" begin="0" fromJunction="J5" toJunction="J3" end="5000" vehsPerHour="177.5917850476557" departLane="free"/>
  <flow id="JF79753" begin="0" fromJunction="J5" toJunction="J0" end="5000" vehsPerHour="69.23140702099656" departLane="free"/>
  <flow id="JF79754" begin="0" fromJunction="J4" toJunction="J3" end="5000" vehsPerHour="184.2655594223505" departLane="free"/>
  <flow id="JF79755" begin="0" fromJunction="J4" toJunction="J0" end="5000" vehsPerHour="35.79864458451061" departLane="free"/>
  <flow id="JF79756" begin="0" fromJunction="J7" toJunction="J3" end="5000" vehsPerHour="223.9000560633391" departLane="free"/>
  <flow id="JF79757" begin="0" fromJunction="J7" toJunction="J0" end="5000" vehsPerHour="259.91925673110757" departLane="free"/>
  <flow id="JF79758" begin="0" fromJunction="J6" toJunction="J3" end="5000" vehsPerHour="169.21491112464693" departLane="free"/>
  <flow id="JF79759" begin="0" fromJunction="J6" toJunction="J0" end="5000" vehsPerHour="246.4390650331369" departLane="free"/>
  <flow id="JF79760" begin="5000" fromJunction="J3" toJunction="J0" end="5060" vehsPerHour="65.67063950107135" departLane="free"/>
  <flow id="JF79761" begin="5000" fromJunction="J0" toJunction="J3" end="5060" vehsPerHour="101.93056548442839" departLane="free"/>
  <flow id="JF79762" begin="5000" fromJunction="J3" toJunction="J5" end="5060" vehsPerHour="64.5825185961514" departLane="free"/>
  <flow id="JF79763" begin="5000" fromJunction="J3" toJunction="J4" end="5060" vehsPerHour="88.50198980164988" departLane="free"/>
  <flow id="JF79764" begin="5000" fromJunction="J3" toJunction="J7" end="5060" vehsPerHour="48.230121067209076" departLane="free"/>
  <flow id="JF79765" begin="5000" fromJunction="J3" toJunction="J6" end="5060" vehsPerHour="27.955961705472905" departLane="free"/>
  <flow id="JF79766" begin="5000" fromJunction="J0" toJunction="J5" end="5060" vehsPerHour="126.77112502919364" departLane="free"/>
  <flow id="JF79767" begin="5000" fromJunction="J0" toJunction="J4" end="5060" vehsPerHour="97.65594997934427" departLane="free"/>
  <flow id="JF79768" begin="5000" fromJunction="J0" toJunction="J7" end="5060" vehsPerHour="100.07329271234853" departLane="free"/>
  <flow id="JF79769" begin="5000" fromJunction="J0" toJunction="J6" end="5060" vehsPerHour="76.64151676642884" departLane="free"/>
  <flow id="JF79770" begin="5000" fromJunction="J5" toJunction="J4" end="5060" vehsPerHour="3.989921644939901" departLane="free"/>
  <flow id="JF79771" begin="5000" fromJunction="J5" toJunction="J7" end="5060" vehsPerHour="39.38869749808596" departLane="free"/>
  <flow id="JF79772" begin="5000" fromJunction="J5" toJunction="J6" end="5060" vehsPerHour="16.606438351273002" departLane="free"/>
  <flow id="JF79773" begin="5000" fromJunction="J4" toJunction="J5" end="5060" vehsPerHour="10.901284382783388" departLane="free"/>
  <flow id="JF79774" begin="5000" fromJunction="J4" toJunction="J7" end="5060" vehsPerHour="61.19877296857701" departLane="free"/>
  <flow id="JF79775" begin="5000" fromJunction="J4" toJunction="J6" end="5060" vehsPerHour="46.75193896525221" departLane="free"/>
  <flow id="JF79776" begin="5000" fromJunction="J7" toJunction="J5" end="5060" vehsPerHour="48.529101547476024" departLane="free"/>
  <flow id="JF79777" begin="5000" fromJunction="J7" toJunction="J4" end="5060" vehsPerHour="65.70299620083782" departLane="free"/>
  <flow id="JF79778" begin="5000" fromJunction="J7" toJunction="J6" end="5060" vehsPerHour="6.109690628518152" departLane="free"/>
  <flow id="JF79779" begin="5000" fromJunction="J6" toJunction="J5" end="5060" vehsPerHour="36.137092786457806" departLane="free"/>
  <flow id="JF79780" begin="5000" fromJunction="J6" toJunction="J4" end="5060" vehsPerHour="50.699453471876666" departLane="free"/>
  <flow id="JF79781" begin="5000" fromJunction="J6" toJunction="J7" end="5060" vehsPerHour="17.745340933866565" departLane="free"/>
  <flow id="JF79782" begin="5000" fromJunction="J5" toJunction="J3" end="5060" vehsPerHour="53.51342364325116" departLane="free"/>
  <flow id="JF79783" begin="5000" fromJunction="J5" toJunction="J0" end="5060" vehsPerHour="39.678175058564925" departLane="free"/>
  <flow id="JF79784" begin="5000" fromJunction="J4" toJunction="J3" end="5060" vehsPerHour="20.85457728573277" departLane="free"/>
  <flow id="JF79785" begin="5000" fromJunction="J4" toJunction="J0" end="5060" vehsPerHour="16.91841617790591" departLane="free"/>
  <flow id="JF79786" begin="5000" fromJunction="J7" toJunction="J3" end="5060" vehsPerHour="28.66872089918388" departLane="free"/>
  <flow id="JF79787" begin="5000" fromJunction="J7" toJunction="J0" end="5060" vehsPerHour="44.95640972182275" departLane="free"/>
  <flow id="JF79788" begin="5000" fromJunction="J6" toJunction="J3" end="5060" vehsPerHour="8.0998105426121" departLane="free"/>
  <flow id="JF79789" begin="5000" fromJunction="J6" toJunction="J0" end="5060" vehsPerHour="45.22844251429347" departLane="free"/>
  <flow id="JF79790" begin="5060" fromJunction="J3" toJunction="J0" end="5120" vehsPerHour="42.278771196177814" departLane="free"/>
  <flow id="JF79791" begin="5060" fromJunction="J0" toJunction="J3" end="5120" vehsPerHour="111.65170997770848" departLane="free"/>
  <flow id="JF79792" begin="5060" fromJunction="J3" toJunction="J5" end="5120" vehsPerHour="112.3012986512312" departLane="free"/>
  <flow id="JF79793" begin="5060" fromJunction="J3" toJunction="J4" end="5120" vehsPerHour="9.14018478767823" departLane="free"/>
  <flow id="JF79794" begin="5060" fromJunction="J3" toJunction="J7" end="5120" vehsPerHour="81.54364437685663" departLane="free"/>
  <flow id="JF79795" begin="5060" fromJunction="J3" toJunction="J6" end="5120" vehsPerHour="133.23933253371905" departLane="free"/>
  <flow id="JF79796" begin="5060" fromJunction="J0" toJunction="J5" end="5120" vehsPerHour="113.09142477351554" departLane="free"/>
  <flow id="JF79797" begin="5060" fromJunction="J0" toJunction="J4" end="5120" vehsPerHour="14.08492667850872" departLane="free"/>
  <flow id="JF79798" begin="5060" fromJunction="J0" toJunction="J7" end="5120" vehsPerHour="107.79115303973637" departLane="free"/>
  <flow id="JF79799" begin="5060" fromJunction="J0" toJunction="J6" end="5120" vehsPerHour="59.55996032145791" departLane="free"/>
  <flow id="JF79800" begin="5060" fromJunction="J5" toJunction="J4" end="5120" vehsPerHour="54.943252421620365" departLane="free"/>
  <flow id="JF79801" begin="5060" fromJunction="J5" toJunction="J7" end="5120" vehsPerHour="36.40552511785071" departLane="free"/>
  <flow id="JF79802" begin="5060" fromJunction="J5" toJunction="J6" end="5120" vehsPerHour="57.500699919620835" departLane="free"/>
  <flow id="JF79803" begin="5060" fromJunction="J4" toJunction="J5" end="5120" vehsPerHour="60.23781441366535" departLane="free"/>
  <flow id="JF79804" begin="5060" fromJunction="J4" toJunction="J7" end="5120" vehsPerHour="68.48876149872912" departLane="free"/>
  <flow id="JF79805" begin="5060" fromJunction="J4" toJunction="J6" end="5120" vehsPerHour="23.32174879989555" departLane="free"/>
  <flow id="JF79806" begin="5060" fromJunction="J7" toJunction="J5" end="5120" vehsPerHour="66.86172657187211" departLane="free"/>
  <flow id="JF79807" begin="5060" fromJunction="J7" toJunction="J4" end="5120" vehsPerHour="55.669565488646676" departLane="free"/>
  <flow id="JF79808" begin="5060" fromJunction="J7" toJunction="J6" end="5120" vehsPerHour="66.54611976076167" departLane="free"/>
  <flow id="JF79809" begin="5060" fromJunction="J6" toJunction="J5" end="5120" vehsPerHour="48.666060895878914" departLane="free"/>
  <flow id="JF79810" begin="5060" fromJunction="J6" toJunction="J4" end="5120" vehsPerHour="27.622294771652417" departLane="free"/>
  <flow id="JF79811" begin="5060" fromJunction="J6" toJunction="J7" end="5120" vehsPerHour="8.23034779914838" departLane="free"/>
  <flow id="JF79812" begin="5060" fromJunction="J5" toJunction="J3" end="5120" vehsPerHour="17.715284302837862" departLane="free"/>
  <flow id="JF79813" begin="5060" fromJunction="J5" toJunction="J0" end="5120" vehsPerHour="36.22508144974574" departLane="free"/>
  <flow id="JF79814" begin="5060" fromJunction="J4" toJunction="J3" end="5120" vehsPerHour="34.73488020368621" departLane="free"/>
  <flow id="JF79815" begin="5060" fromJunction="J4" toJunction="J0" end="5120" vehsPerHour="17.860788818924075" departLane="free"/>
  <flow id="JF79816" begin="5060" fromJunction="J7" toJunction="J3" end="5120" vehsPerHour="54.53988838498537" departLane="free"/>
  <flow id="JF79817" begin="5060" fromJunction="J7" toJunction="J0" end="5120" vehsPerHour="32.98916107625537" departLane="free"/>
  <flow id="JF79818" begin="5060" fromJunction="J6" toJunction="J3" end="5120" vehsPerHour="13.016162850510996" departLane="free"/>
  <flow id="JF79819" begin="5060" fromJunction="J6" toJunction="J0" end="5120" vehsPerHour="51.787301059596615" departLane="free"/>
  <flow id="JF79820" begin="5120" fromJunction="J3" toJunction="J0" end="5180" vehsPerHour="48.4947891950153" departLane="free"/>
  <flow id="JF79821" begin="5120" fromJunction="J0" toJunction="J3" end="5180" vehsPerHour="99.62049881079672" departLane="free"/>
  <flow id="JF79822" begin="5120" fromJunction="J3" toJunction="J5" end="5180" vehsPerHour="79.37336288085612" departLane="free"/>
  <flow id="JF79823" begin="5120" fromJunction="J3" toJunction="J4" end="5180" vehsPerHour="127.64780403768093" departLane="free"/>
  <flow id="JF79824" begin="5120" fromJunction="J3" toJunction="J7" end="5180" vehsPerHour="65.71296829827902" departLane="free"/>
  <flow id="JF79825" begin="5120" fromJunction="J3" toJunction="J6" end="5180" vehsPerHour="81.7208781713708" departLane="free"/>
  <flow id="JF79826" begin="5120" fromJunction="J0" toJunction="J5" end="5180" vehsPerHour="63.429696423761705" departLane="free"/>
  <flow id="JF79827" begin="5120" fromJunction="J0" toJunction="J4" end="5180" vehsPerHour="123.80251526526735" departLane="free"/>
  <flow id="JF79828" begin="5120" fromJunction="J0" toJunction="J7" end="5180" vehsPerHour="54.678361903696114" departLane="free"/>
  <flow id="JF79829" begin="5120" fromJunction="J0" toJunction="J6" end="5180" vehsPerHour="0.004624475791043548" departLane="free"/>
  <flow id="JF79830" begin="5120" fromJunction="J5" toJunction="J4" end="5180" vehsPerHour="32.86864130962364" departLane="free"/>
  <flow id="JF79831" begin="5120" fromJunction="J5" toJunction="J7" end="5180" vehsPerHour="43.304691848337676" departLane="free"/>
  <flow id="JF79832" begin="5120" fromJunction="J5" toJunction="J6" end="5180" vehsPerHour="48.30073984047952" departLane="free"/>
  <flow id="JF79833" begin="5120" fromJunction="J4" toJunction="J5" end="5180" vehsPerHour="8.024715082497343" departLane="free"/>
  <flow id="JF79834" begin="5120" fromJunction="J4" toJunction="J7" end="5180" vehsPerHour="11.237480084180822" departLane="free"/>
  <flow id="JF79835" begin="5120" fromJunction="J4" toJunction="J6" end="5180" vehsPerHour="18.859617539799423" departLane="free"/>
  <flow id="JF79836" begin="5120" fromJunction="J7" toJunction="J5" end="5180" vehsPerHour="52.54413790889494" departLane="free"/>
  <flow id="JF79837" begin="5120" fromJunction="J7" toJunction="J4" end="5180" vehsPerHour="39.68102783392235" departLane="free"/>
  <flow id="JF79838" begin="5120" fromJunction="J7" toJunction="J6" end="5180" vehsPerHour="25.73881492571071" departLane="free"/>
  <flow id="JF79839" begin="5120" fromJunction="J6" toJunction="J5" end="5180" vehsPerHour="30.650143450301293" departLane="free"/>
  <flow id="JF79840" begin="5120" fromJunction="J6" toJunction="J4" end="5180" vehsPerHour="21.493926818245107" departLane="free"/>
  <flow id="JF79841" begin="5120" fromJunction="J6" toJunction="J7" end="5180" vehsPerHour="47.27442740869943" departLane="free"/>
  <flow id="JF79842" begin="5120" fromJunction="J5" toJunction="J3" end="5180" vehsPerHour="55.45514686746992" departLane="free"/>
  <flow id="JF79843" begin="5120" fromJunction="J5" toJunction="J0" end="5180" vehsPerHour="59.76968295609207" departLane="free"/>
  <flow id="JF79844" begin="5120" fromJunction="J4" toJunction="J3" end="5180" vehsPerHour="49.676334377781494" departLane="free"/>
  <flow id="JF79845" begin="5120" fromJunction="J4" toJunction="J0" end="5180" vehsPerHour="51.897350347528445" departLane="free"/>
  <flow id="JF79846" begin="5120" fromJunction="J7" toJunction="J3" end="5180" vehsPerHour="7.506081224513234" departLane="free"/>
  <flow id="JF79847" begin="5120" fromJunction="J7" toJunction="J0" end="5180" vehsPerHour="18.847819549308937" departLane="free"/>
  <flow id="JF79848" begin="5120" fromJunction="J6" toJunction="J3" end="5180" vehsPerHour="23.566605314509264" departLane="free"/>
  <flow id="JF79849" begin="5120" fromJunction="J6" toJunction="J0" end="5180" vehsPerHour="6.3317811584832535" departLane="free"/>
  <flow id="JF79850" begin="5180" fromJunction="J3" toJunction="J0" end="5240" vehsPerHour="24.73253805664494" departLane="free"/>
  <flow id="JF79851" begin="5180" fromJunction="J0" toJunction="J3" end="5240" vehsPerHour="130.1692333737126" departLane="free"/>
  <flow id="JF79852" begin="5180" fromJunction="J3" toJunction="J5" end="5240" vehsPerHour="129.71074382932724" departLane="free"/>
  <flow id="JF79853" begin="5180" fromJunction="J3" toJunction="J4" end="5240" vehsPerHour="18.435610120922657" departLane="free"/>
  <flow id="JF79854" begin="5180" fromJunction="J3" toJunction="J7" end="5240" vehsPerHour="27.26802250102384" departLane="free"/>
  <flow id="JF79855" begin="5180" fromJunction="J3" toJunction="J6" end="5240" vehsPerHour="15.02743431008422" departLane="free"/>
  <flow id="JF79856" begin="5180" fromJunction="J0" toJunction="J5" end="5240" vehsPerHour="90.22307473772375" departLane="free"/>
  <flow id="JF79857" begin="5180" fromJunction="J0" toJunction="J4" end="5240" vehsPerHour="113.55215436074218" departLane="free"/>
  <flow id="JF79858" begin="5180" fromJunction="J0" toJunction="J7" end="5240" vehsPerHour="129.57998448124053" departLane="free"/>
  <flow id="JF79859" begin="5180" fromJunction="J0" toJunction="J6" end="5240" vehsPerHour="37.234098695516536" departLane="free"/>
  <flow id="JF79860" begin="5180" fromJunction="J5" toJunction="J4" end="5240" vehsPerHour="19.290033072703622" departLane="free"/>
  <flow id="JF79861" begin="5180" fromJunction="J5" toJunction="J7" end="5240" vehsPerHour="46.605666410259104" departLane="free"/>
  <flow id="JF79862" begin="5180" fromJunction="J5" toJunction="J6" end="5240" vehsPerHour="44.71314360598945" departLane="free"/>
  <flow id="JF79863" begin="5180" fromJunction="J4" toJunction="J5" end="5240" vehsPerHour="55.94525105893136" departLane="free"/>
  <flow id="JF79864" begin="5180" fromJunction="J4" toJunction="J7" end="5240" vehsPerHour="26.625551352773808" departLane="free"/>
  <flow id="JF79865" begin="5180" fromJunction="J4" toJunction="J6" end="5240" vehsPerHour="24.71332765497102" departLane="free"/>
  <flow id="JF79866" begin="5180" fromJunction="J7" toJunction="J5" end="5240" vehsPerHour="26.28437791049165" departLane="free"/>
  <flow id="JF79867" begin="5180" fromJunction="J7" toJunction="J4" end="5240" vehsPerHour="7.8818468646648" departLane="free"/>
  <flow id="JF79868" begin="5180" fromJunction="J7" toJunction="J6" end="5240" vehsPerHour="4.086472788382021" departLane="free"/>
  <flow id="JF79869" begin="5180" fromJunction="J6" toJunction="J5" end="5240" vehsPerHour="59.4336378779578" departLane="free"/>
  <flow id="JF79870" begin="5180" fromJunction="J6" toJunction="J4" end="5240" vehsPerHour="45.25453323450338" departLane="free"/>
  <flow id="JF79871" begin="5180" fromJunction="J6" toJunction="J7" end="5240" vehsPerHour="13.259782727446472" departLane="free"/>
  <flow id="JF79872" begin="5180" fromJunction="J5" toJunction="J3" end="5240" vehsPerHour="52.5784203905769" departLane="free"/>
  <flow id="JF79873" begin="5180" fromJunction="J5" toJunction="J0" end="5240" vehsPerHour="21.81097652991323" departLane="free"/>
  <flow id="JF79874" begin="5180" fromJunction="J4" toJunction="J3" end="5240" vehsPerHour="68.5641269311303" departLane="free"/>
  <flow id="JF79875" begin="5180" fromJunction="J4" toJunction="J0" end="5240" vehsPerHour="54.789885799237155" departLane="free"/>
  <flow id="JF79876" begin="5180" fromJunction="J7" toJunction="J3" end="5240" vehsPerHour="15.088181992121456" departLane="free"/>
  <flow id="JF79877" begin="5180" fromJunction="J7" toJunction="J0" end="5240" vehsPerHour="26.90034814261162" departLane="free"/>
  <flow id="JF79878" begin="5180" fromJunction="J6" toJunction="J3" end="5240" vehsPerHour="38.10722508016778" departLane="free"/>
  <flow id="JF79879" begin="5180" fromJunction="J6" toJunction="J0" end="5240" vehsPerHour="6.624914245208917" departLane="free"/>
  <flow id="JF79880" begin="5240" fromJunction="J3" toJunction="J0" end="5300" vehsPerHour="24.90131140827866" departLane="free"/>
  <flow id="JF79881" begin="5240" fromJunction="J0" toJunction="J3" end="5300" vehsPerHour="52.99686637012433" departLane="free"/>
  <flow id="JF79882" begin="5240" fromJunction="J3" toJunction="J5" end="5300" vehsPerHour="105.3676315797491" departLane="free"/>
  <flow id="JF79883" begin="5240" fromJunction="J3" toJunction="J4" end="5300" vehsPerHour="1.6088659156790281" departLane="free"/>
  <flow id="JF79884" begin="5240" fromJunction="J3" toJunction="J7" end="5300" vehsPerHour="103.19048799803319" departLane="free"/>
  <flow id="JF79885" begin="5240" fromJunction="J3" toJunction="J6" end="5300" vehsPerHour="111.87195258068988" departLane="free"/>
  <flow id="JF79886" begin="5240" fromJunction="J0" toJunction="J5" end="5300" vehsPerHour="4.923789451814167" departLane="free"/>
  <flow id="JF79887" begin="5240" fromJunction="J0" toJunction="J4" end="5300" vehsPerHour="29.386105768639702" departLane="free"/>
  <flow id="JF79888" begin="5240" fromJunction="J0" toJunction="J7" end="5300" vehsPerHour="69.15711100357295" departLane="free"/>
  <flow id="JF79889" begin="5240" fromJunction="J0" toJunction="J6" end="5300" vehsPerHour="24.634495834481637" departLane="free"/>
  <flow id="JF79890" begin="5240" fromJunction="J5" toJunction="J4" end="5300" vehsPerHour="53.162298303621185" departLane="free"/>
  <flow id="JF79891" begin="5240" fromJunction="J5" toJunction="J7" end="5300" vehsPerHour="6.177998529966672" departLane="free"/>
  <flow id="JF79892" begin="5240" fromJunction="J5" toJunction="J6" end="5300" vehsPerHour="63.3802262916394" departLane="free"/>
  <flow id="JF79893" begin="5240" fromJunction="J4" toJunction="J5" end="5300" vehsPerHour="14.504124128494299" departLane="free"/>
  <flow id="JF79894" begin="5240" fromJunction="J4" toJunction="J7" end="5300" vehsPerHour="6.212659290436696" departLane="free"/>
  <flow id="JF79895" begin="5240" fromJunction="J4" toJunction="J6" end="5300" vehsPerHour="17.04557981735343" departLane="free"/>
  <flow id="JF79896" begin="5240" fromJunction="J7" toJunction="J5" end="5300" vehsPerHour="13.274481372784408" departLane="free"/>
  <flow id="JF79897" begin="5240" fromJunction="J7" toJunction="J4" end="5300" vehsPerHour="18.44362361263219" departLane="free"/>
  <flow id="JF79898" begin="5240" fromJunction="J7" toJunction="J6" end="5300" vehsPerHour="17.390010396634977" departLane="free"/>
  <flow id="JF79899" begin="5240" fromJunction="J6" toJunction="J5" end="5300" vehsPerHour="8.504975239704887" departLane="free"/>
  <flow id="JF79900" begin="5240" fromJunction="J6" toJunction="J4" end="5300" vehsPerHour="58.50601436685971" departLane="free"/>
  <flow id="JF79901" begin="5240" fromJunction="J6" toJunction="J7" end="5300" vehsPerHour="29.587581265056762" departLane="free"/>
  <flow id="JF79902" begin="5240" fromJunction="J5" toJunction="J3" end="5300" vehsPerHour="67.32238519355282" departLane="free"/>
  <flow id="JF79903" begin="5240" fromJunction="J5" toJunction="J0" end="5300" vehsPerHour="46.907482558796225" departLane="free"/>
  <flow id="JF79904" begin="5240" fromJunction="J4" toJunction="J3" end="5300" vehsPerHour="47.69877483172167" departLane="free"/>
  <flow id="JF79905" begin="5240" fromJunction="J4" toJunction="J0" end="5300" vehsPerHour="31.31989126711444" departLane="free"/>
  <flow id="JF79906" begin="5240" fromJunction="J7" toJunction="J3" end="5300" vehsPerHour="43.095968234549005" departLane="free"/>
  <flow id="JF79907" begin="5240" fromJunction="J7" toJunction="J0" end="5300" vehsPerHour="49.69095371463321" departLane="free"/>
  <flow id="JF79908" begin="5240" fromJunction="J6" toJunction="J3" end="5300" vehsPerHour="5.600764188232324" departLane="free"/>
  <flow id="JF79909" begin="5240" fromJunction="J6" toJunction="J0" end="5300" vehsPerHour="48.13712078248179" departLane="free"/>
  <flow id="JF79910" begin="5300" fromJunction="J3" toJunction="J0" end="5360" vehsPerHour="103.50339031570613" departLane="free"/>
  <flow id="JF79911" begin="5300" fromJunction="J0" toJunction="J3" end="5360" vehsPerHour="85.7195767860786" departLane="free"/>
  <flow id="JF79912" begin="5300" fromJunction="J3" toJunction="J5" end="5360" vehsPerHour="78.1303436375151" departLane="free"/>
  <flow id="JF79913" begin="5300" fromJunction="J3" toJunction="J4" end="5360" vehsPerHour="108.27293628052875" departLane="free"/>
  <flow id="JF79914" begin="5300" fromJunction="J3" toJunction="J7" end="5360" vehsPerHour="90.57379541019664" departLane="free"/>
  <flow id="JF79915" begin="5300" fromJunction="J3" toJunction="J6" end="5360" vehsPerHour="106.22107716720372" departLane="free"/>
  <flow id="JF79916" begin="5300" fromJunction="J0" toJunction="J5" end="5360" vehsPerHour="9.654455005469627" departLane="free"/>
  <flow id="JF79917" begin="5300" fromJunction="J0" toJunction="J4" end="5360" vehsPerHour="93.9964421602998" departLane="free"/>
  <flow id="JF79918" begin="5300" fromJunction="J0" toJunction="J7" end="5360" vehsPerHour="38.80203405093234" departLane="free"/>
  <flow id="JF79919" begin="5300" fromJunction="J0" toJunction="J6" end="5360" vehsPerHour="27.761414420303208" departLane="free"/>
  <flow id="JF79920" begin="5300" fromJunction="J5" toJunction="J4" end="5360" vehsPerHour="6.263454220424131" departLane="free"/>
  <flow id="JF79921" begin="5300" fromJunction="J5" toJunction="J7" end="5360" vehsPerHour="32.77007904822442" departLane="free"/>
  <flow id="JF79922" begin="5300" fromJunction="J5" toJunction="J6" end="5360" vehsPerHour="48.57177785890316" departLane="free"/>
  <flow id="JF79923" begin="5300" fromJunction="J4" toJunction="J5" end="5360" vehsPerHour="4.7333539819862045" departLane="free"/>
  <flow id="JF79924" begin="5300" fromJunction="J4" toJunction="J7" end="5360" vehsPerHour="16.334491725173656" departLane="free"/>
  <flow id="JF79925" begin="5300" fromJunction="J4" toJunction="J6" end="5360" vehsPerHour="10.726799605582398" departLane="free"/>
  <flow id="JF79926" begin="5300" fromJunction="J7" toJunction="J5" end="5360" vehsPerHour="61.51678094152092" departLane="free"/>
  <flow id="JF79927" begin="5300" fromJunction="J7" toJunction="J4" end="5360" vehsPerHour="26.335856386152855" departLane="free"/>
  <flow id="JF79928" begin="5300" fromJunction="J7" toJunction="J6" end="5360" vehsPerHour="21.940109796944522" departLane="free"/>
  <flow id="JF79929" begin="5300" fromJunction="J6" toJunction="J5" end="5360" vehsPerHour="65.80848481794531" departLane="free"/>
  <flow id="JF79930" begin="5300" fromJunction="J6" toJunction="J4" end="5360" vehsPerHour="41.94915922390835" departLane="free"/>
  <flow id="JF79931" begin="5300" fromJunction="J6" toJunction="J7" end="5360" vehsPerHour="29.628943033687495" departLane="free"/>
  <flow id="JF79932" begin="5300" fromJunction="J5" toJunction="J3" end="5360" vehsPerHour="25.18345591281299" departLane="free"/>
  <flow id="JF79933" begin="5300" fromJunction="J5" toJunction="J0" end="5360" vehsPerHour="32.062837764364666" departLane="free"/>
  <flow id="JF79934" begin="5300" fromJunction="J4" toJunction="J3" end="5360" vehsPerHour="59.678998555606476" departLane="free"/>
  <flow id="JF79935" begin="5300" fromJunction="J4" toJunction="J0" end="5360" vehsPerHour="43.699247844412874" departLane="free"/>
  <flow id="JF79936" begin="5300" fromJunction="J7" toJunction="J3" end="5360" vehsPerHour="48.58382297167243" departLane="free"/>
  <flow id="JF79937" begin="5300" fromJunction="J7" toJunction="J0" end="5360" vehsPerHour="31.09211593114891" departLane="free"/>
  <flow id="JF79938" begin="5300" fromJunction="J6" toJunction="J3" end="5360" vehsPerHour="64.85130364197904" departLane="free"/>
  <flow id="JF79939" begin="5300" fromJunction="J6" toJunction="J0" end="5360" vehsPerHour="50.40915003635223" departLane="free"/>
  <flow id="JF79940" begin="5360" fromJunction="J3" toJunction="J0" end="5420" vehsPerHour="17.174890619215933" departLane="free"/>
  <flow id="JF79941" begin="5360" fromJunction="J0" toJunction="J3" end="5420" vehsPerHour="87.58951321114492" departLane="free"/>
  <flow id="JF79942" begin="5360" fromJunction="J3" toJunction="J5" end="5420" vehsPerHour="29.700066510403836" departLane="free"/>
  <flow id="JF79943" begin="5360" fromJunction="J3" toJunction="J4" end="5420" vehsPerHour="0.5738259969982485" departLane="free"/>
  <flow id="JF79944" begin="5360" fromJunction="J3" toJunction="J7" end="5420" vehsPerHour="46.44455064028813" departLane="free"/>
  <flow id="JF79945" begin="5360" fromJunction="J3" toJunction="J6" end="5420" vehsPerHour="60.40061948220965" departLane="free"/>
  <flow id="JF79946" begin="5360" fromJunction="J0" toJunction="J5" end="5420" vehsPerHour="41.03473970458142" departLane="free"/>
  <flow id="JF79947" begin="5360" fromJunction="J0" toJunction="J4" end="5420" vehsPerHour="135.1582382612819" departLane="free"/>
  <flow id="JF79948" begin="5360" fromJunction="J0" toJunction="J7" end="5420" vehsPerHour="118.23551277830312" departLane="free"/>
  <flow id="JF79949" begin="5360" fromJunction="J0" toJunction="J6" end="5420" vehsPerHour="16.22153312229717" departLane="free"/>
  <flow id="JF79950" begin="5360" fromJunction="J5" toJunction="J4" end="5420" vehsPerHour="22.284377651895838" departLane="free"/>
  <flow id="JF79951" begin="5360" fromJunction="J5" toJunction="J7" end="5420" vehsPerHour="11.820785664667664" departLane="free"/>
  <flow id="JF79952" begin="5360" fromJunction="J5" toJunction="J6" end="5420" vehsPerHour="68.29418071848967" departLane="free"/>
  <flow id="JF79953" begin="5360" fromJunction="J4" toJunction="J5" end="5420" vehsPerHour="13.575879241291972" departLane="free"/>
  <flow id="JF79954" begin="5360" fromJunction="J4" toJunction="J7" end="5420" vehsPerHour="22.846988289309152" departLane="free"/>
  <flow id="JF79955" begin="5360" fromJunction="J4" toJunction="J6" end="5420" vehsPerHour="43.556421934015724" departLane="free"/>
  <flow id="JF79956" begin="5360" fromJunction="J7" toJunction="J5" end="5420" vehsPerHour="65.49584971733603" departLane="free"/>