<?xml version="1.0" encoding="UTF-8"?>
<routes xmlns:xsi="http://www.w3.org/2001/XMLSchema-instance" xsi:noNamespaceSchemaLocation="http://sumo.dlr.de/xsd/routes_file.xsd">
  <flow id="JF81910" begin="0" fromJunction="J3" toJunction="J0" end="5000" vehsPerHour="22.987541902954906" departLane="free"/>
  <flow id="JF81911" begin="0" fromJunction="J0" toJunction="J3" end="5000" vehsPerHour="70.8354784111032" departLane="free"/>
  <flow id="JF81912" begin="0" fromJunction="J3" toJunction="J5" end="5000" vehsPerHour="111.61340629716226" departLane="free"/>
  <flow id="JF81913" begin="0" fromJunction="J3" toJunction="J4" end="5000" vehsPerHour="511.6482314712978" departLane="free"/>
  <flow id="JF81914" begin="0" fromJunction="J3" toJunction="J7" end="5000" vehsPerHour="237.84683680864777" departLane="free"/>
  <flow id="JF81915" begin="0" fromJunction="J3" toJunction="J6" end="5000" vehsPerHour="9.11083026458216" departLane="free"/>
  <flow id="JF81916" begin="0" fromJunction="J0" toJunction="J5" end="5000" vehsPerHour="163.85384001765436" departLane="free"/>
  <flow id="JF81917" begin="0" fromJunction="J0" toJunction="J4" end="5000" vehsPerHour="280.18992657495585" departLane="free"/>
  <flow id="JF81918" begin="0" fromJunction="J0" toJunction="J7" end="5000" vehsPerHour="346.6555996344315" departLane="free"/>
  <flow id="JF81919" begin="0" fromJunction="J0" toJunction="J6" end="5000" vehsPerHour="71.64557035269523" departLane="free"/>
  <flow id="JF81920" begin="0" fromJunction="J5" toJunction="J4" end="5000" vehsPerHour="13.871022169318145" departLane="free"/>
  <flow id="JF81921" begin="0" fromJunction="J5" toJunction="J7" end="5000" vehsPerHour="3.7589705705605376" departLane="free"/>
  <flow id="JF81922" begin="0" fromJunction="J5" toJunction="J6" end="5000" vehsPerHour="56.207510595932256" departLane="free"/>
  <flow id="JF81923" begin="0" fromJunction="J4" toJunction="J5" end="5000" vehsPerHour="25.357670892283185" departLane="free"/>
  <flow id="JF81924" begin="0" fromJunction="J4" toJunction="J7" end="5000" vehsPerHour="26.41986898753737" departLane="free"/>
  <flow id="JF81925" begin="0" fromJunction="J4" toJunction="J6" end="5000" vehsPerHour="61.790303992757146" departLane="free"/>
  <flow id="JF81926" begin="0" fromJunction="J7" toJunction="J5" end="5000" vehsPerHour="50.67836603012829" departLane="free"/>
  <flow id="JF81927" begin="0" fromJunction="J7" toJunction="J4" end="5000" vehsPerHour="15.132776153938725" departLane="free"/>
  <flow id="JF81928" begin="0" fromJunction="J7" toJunction="J6" end="5000" vehsPerHour="12.228206724776227" departLane="free"/>
  <flow id="JF81929" begin="0" fromJunction="J6" toJunction="J5" end="5000" vehsPerHour="23.020415132582933" departLane="free"/>
  <flow id="JF81930" begin="0" fromJunction="J6" toJunction="J4" end="5000" vehsPerHour="4.70639810047636" departLane="free"/>
  <flow id="JF81931" begin="0" fromJunction="J6" toJunction="J7" end="5000" vehsPerHour="67.98026115420437" departLane="free"/>
  <flow id="JF81932" begin="0" fromJunction="J5" toJunction="J3" end="5000" vehsPerHour="164.18425326689484" departLane="free"/>
  <flow id="JF81933" begin="0" fromJunction="J5" toJunction="J0" end="5000" vehsPerHour="192.8009755961861" departLane="free"/>
  <flow id="JF81934" begin="0" fromJunction="J4" toJunction="J3" end="5000" vehsPerHour="155.59582133034488" departLane="free"/>
  <flow id="JF81935" begin="0" fromJunction="J4" toJunction="J0" end="5000" vehsPerHour="25.724358391349302" departLane="free"/>
  <flow id="JF81936" begin="0" fromJunction="J7" toJunction="J3" end="5000" vehsPerHour="169.95113029161166" departLane="free"/>
  <flow id="JF81937" begin="0" fromJunction="J7" toJunction="J0" end="5000" vehsPerHour="4.237354504029484" departLane="free"/>
  <flow id="JF81938" begin="0" fromJunction="J6" toJunction="J3" end="5000" vehsPerHour="62.599604084987085" departLane="free"/>
  <flow id="JF81939" begin="0" fromJunction="J6" toJunction="J0" end="5000" vehsPerHour="67.48962310066646" departLane="free"/>
  <flow id="JF81940" begin="5000" fromJunction="J3" toJunction="J0" end="5060" vehsPerHour="76.02171042663203" departLane="free"/>
  <flow id="JF81941" begin="5000" fromJunction="J0" toJunction="J3" end="5060" vehsPerHour="46.59161870867392" departLane="free"/>
  <flow id="JF81942" begin="5000" fromJunction="J3" toJunction="J5" end="5060" vehsPerHour="119.92873589792434" departLane="free"/>
  <flow id="JF81943" begin="5000" fromJunction="J3" toJunction="J4" end="5060" vehsPerHour="132.81699236644891" departLane="free"/>
  <flow id="JF81944" begin="5000" fromJunction="J3" toJunction="J7" end="5060" vehsPerHour="69.6382454704811" departLane="free"/>
  <flow id="JF81945" begin="5000" fromJunction="J3" toJunction="J6" end="5060" vehsPerHour="5.002042859471574" departLane="free"/>
  <flow id="JF81946" begin="5000" fromJunction="J0" toJunction="J5" end="5060" vehsPerHour="128.36897380438057" departLane="free"/>
  <flow id="JF81947" begin="5000" fromJunction="J0" toJunction="J4" end="5060" vehsPerHour="73.20835678809422" departLane="free"/>
  <flow id="JF81948" begin="5000" fromJunction="J0" toJunction="J7" end="5060" vehsPerHour="13.88460004410211" departLane="free"/>
  <flow id="JF81949" begin="5000" fromJunction="J0" toJunction="J6" end="5060" vehsPerHour="38.83927955591549" departLane="free"/>
  <flow id="JF81950" begin="5060" fromJunction="J3" toJunction="J0" end="5120" vehsPerHour="57.11071712621488" departLane="free"/>
  <flow id="JF81951" begin="5060" fromJunction="J0" toJunction="J3" end="5120" vehsPerHour="15.168670917900567" departLane="free"/>
  <flow id="JF81952" begin="5060" fromJunction="J3" toJunction="J5" end="5120" vehsPerHour="26.621805988695858" departLane="free"/>
  <flow id="JF81953" begin="5060" fromJunction="J3" toJunction="J4" end="5120" vehsPerHour="13.077734750395352" departLane="free"/>
  <flow id="JF81954" begin="5060" fromJunction="J3" toJunction="J7" end="5120" vehsPerHour="100.08729182641078" departLane="free"/>
  <flow id="JF81955" begin="5060" fromJunction="J3" toJunction="J6" end="5120" vehsPerHour="125.00910148789607" departLane="free"/>
  <flow id="JF81956" begin="5060" fromJunction="J0" toJunction="J5" end="5120" vehsPerHour="69.87139048030102" departLane="free"/>
  <flow id="JF81957" begin="5060" fromJunction="J0" toJunction="J4" end="5120" vehsPerHour="122.3773436379374" departLane="free"/>
  <flow id="JF81958" begin="5060" fromJunction="J0" toJunction="J7" end="5120" vehsPerHour="57.95870938732593" departLane="free"/>
  <flow id="JF81959" begin="5060" fromJunction="J0" toJunction="J6" end="5120" vehsPerHour="114.25520192869573" departLane="free"/>
  <flow id="JF81960" begin="5120" fromJunction="J3" toJunction="J0" end="5180" vehsPerHour="78.09332687626629" departLane="free"/>
  <flow id="JF81961" begin="5120" fromJunction="J0" toJunction="J3" end="5180" vehsPerHour="125.7277089012775" departLane="free"/>
  <flow id="JF81962" begin="5120" fromJunction="J3" toJunction="J5" end="5180" vehsPerHour="116.67672401664336" departLane="free"/>
  <flow id="JF81963" begin="5120" fromJunction="J3" toJunction="J4" end="5180" vehsPerHour="55.80453086526059" departLane="free"/>
  <flow id="JF81964" begin="5120" fromJunction="J3" toJunction="J7" end="5180" vehsPerHour="77.47307288988328" departLane="free"/>
  <flow id="JF81965" begin="5120" fromJunction="J3" toJunction="J6" end="5180" vehsPerHour="90.72138117626014" departLane="free"/>
  <flow id="JF81966" begin="5120" fromJunction="J0" toJunction="J5" end="5180" vehsPerHour="9.7545884313283" departLane="free"/>
  <flow id="JF81967" begin="5120" fromJunction="J0" toJunction="J4" end="5180" vehsPerHour="103.03877073135146" departLane="free"/>
  <flow id="JF81968" begin="5120" fromJunction="J0" toJunction="J7" end="5180" vehsPerHour="78.02236531462177" departLane="free"/>
  <flow id="JF81969" begin="5120" fromJunction="J0" toJunction="J6" end="5180" vehsPerHour="129.10817269795294" departLane="free"/>
  <flow id="JF81970" begin="5180" fromJunction="J3" toJunction="J0" end="5240" vehsPerHour="122.57058961536988" departLane="free"/>
  <flow id="JF81971" begin="5180" fromJunction="J0" toJunction="J3" end="5240" vehsPerHour="83.6001320248629" departLane="free"/>
  <flow id="JF81972" begin="5180" fromJunction="J3" toJunction="J5" end="5240" vehsPerHour="86.96171376828228" departLane="free"/>
  <flow id="JF81973" begin="5180" fromJunction="J3" toJunction="J4" end="5240" vehsPerHour="3.6237838485817018" departLane="free"/>
  <flow id="JF81974" begin="5180" fromJunction="J3" toJunction="J7" end="5240" vehsPerHour="110.51068205456922" departLane="free"/>
  <flow id="JF81975" begin="5180" fromJunction="J3" toJunction="J6" end="5240" vehsPerHour="37.607638847401326" departLane="free"/>
  <flow id="JF81976" begin="5180" fromJunction="J0" toJunction="J5" end="5240" vehsPerHour="8.414789203040836" departLane="free"/>
  <flow id="JF81977" begin="5180" fromJunction="J0" toJunction="J4" end="5240" vehsPerHour="125.86107106507508" departLane="free"/>
  <flow id="JF81978" begin="5180" fromJunction="J0" toJunction="J7" end="5240" vehsPerHour="60.69158205926953" departLane="free"/>
  <flow id="JF81979" begin="5180" fromJunction="J0" toJunction="J6" end="5240" vehsPerHour="31.047511360704792" departLane="free"/>
  <flow id="JF81980" begin="5180" fromJunction="J5" toJunction="J4" end="5240" vehsPerHour="12.639613709331492" departLane="free"/>
  <flow id="JF81981" begin="5180" fromJunction="J5" toJunction="J7" end="5240" vehsPerHour="55.342070601526736" departLane="free"/>
  <flow id="JF81982" begin="5180" fromJunction="J5" toJunction="J6" end="5240" vehsPerHour="61.77050774589986" departLane="free"/>
  <flow id="JF81983" begin="5180" fromJunction="J4" toJunction="J5" end="5240" vehsPerHour="13.683706281124753" departLane="free"/>
  <flow id="JF81984" begin="5180" fromJunction="J4" toJunction="J7" end="5240" vehsPerHour="12.484396961797385" departLane="free"/>
  <flow id="JF81985" begin="5180" fromJunction="J4" toJunction="J6" end="5240" vehsPerHour="66.88542754889251" departLane="free"/>
  <flow id="JF81986" begin="5180" fromJunction="J7" toJunction="J5" end="5240" vehsPerHour="4.219277528290566" departLane="free"/>
  <flow id="JF81987" begin="5180" fromJunction="J7" toJunction="J4" end="5240" vehsPerHour="43.59323863202767" departLane="free"/>
  <flow id="JF81988" begin="5180" fromJunction="J7" toJunction="J6" end="5240" vehsPerHour="5.895579985445077" departLane="free"/>
  <flow id="JF81989" begin="5180" fromJunction="J6" toJunction="J5" end="5240" vehsPerHour="60.43967359026704" departLane="free"/>
  <flow id="JF81990" begin="5180" fromJunction="J6" toJunction="J4" end="5240" vehsPerHour="1.485149266903779" departLane="free"/>
  <flow id="JF81991" begin="5180" fromJunction="J6" toJunction="J7" end="5240" vehsPerHour="31.728921123971496" departLane="free"/>
  <flow id="JF81992" begin="5180" fromJunction="J5" toJunction="J3" end="5240" vehsPerHour="42.39892053044928" departLane="free"/>
  <flow id="JF81993" begin="5180" fromJunction="J5" toJunction="J0" end="5240" vehsPerHour="20.234115040249236" departLane="free"/>
  <flow id="JF81994" begin="5180" fromJunction="J4" toJunction="J3" end="5240" vehsPerHour="13.495286333377063" departLane="free"/>
  <flow id="JF81995" begin="5180" fromJunction="J4" toJunction="J0" end="5240" vehsPerHour="17.150648285718923" departLane="free"/>
  <flow id="JF81996" begin="5180" fromJunction="J7" toJunction="J3" end="5240" vehsPerHour="2.70888810797528" departLane="free"/>
  <flow id="JF81997" begin="5180" fromJunction="J7" toJunction="J0" end="5240" vehsPerHour="52.82723734204253" departLane="free"/>
  <flow id="JF81998" begin="5180" fromJunction="J6" toJunction="J3" end="5240" vehsPerHour="2.807114160957095" departLane="free"/>
  <flow id="JF81999" begin="5180" fromJunction="J6" toJunction="J0" end="5240" vehsPerHour="2.2495130159798147" departLane="free"/>
  <flow id="JF82000" begin="5240" fromJunction="J3" toJunction="J0" end="5300" vehsPerHour="13.132711889929695" departLane="free"/>
  <flow id="JF82001" begin="5240" fromJunction="J0" toJunction="J3" end="5300" vehsPerHour="3.9560298670572496" departLane="free"/>
  <flow id="JF82002" begin="5240" fromJunction="J3" toJunction="J5" end="5300" vehsPerHour="8.248034467561572" departLane="free"/>
  <flow id="JF82003" begin="5240" fromJunction="J3" toJunction="J4" end="5300" vehsPerHour="56.05588512802878" departLane="free"/>
  <flow id="JF82004" begin="5240" fromJunction="J3" toJunction="J7" end="5300" vehsPerHour="54.73133830792423" departLane="free"/>
  <flow id="JF82005" begin="5240" fromJunction="J3" toJunction="J6" end="5300" vehsPerHour="75.37430953308663" departLane="free"/>
  <flow id="JF82006" begin="5240" fromJunction="J0" toJunction="J5" end="5300" vehsPerHour="90.19844476534172" departLane="free"/>
  <flow id="JF82007" begin="5240" fromJunction="J0" toJunction="J4" end="5300" vehsPerHour="14.918266971574658" departLane="free"/>
  <flow id="JF82008" begin="5240" fromJunction="J0" toJunction="J7" end="5300" vehsPerHour="64.186347913603" departLane="free"/>
  <flow id="JF82009" begin="5240" fromJunction="J0" toJunction="J6" end="5300" vehsPerHour="44.30638839902231" departLane="free"/>
  <flow id="JF82010" begin="5240" fromJunction="J5" toJunction="J4" end="5300" vehsPerHour="34.43131897162831" departLane="free"/>
  <flow id="JF82011" begin="5240" fromJunction="J5" toJunction="J7" end="5300" vehsPerHour="41.57490224382612" departLane="free"/>
  <flow id="JF82012" begin="5240" fromJunction="J5" toJunction="J6" end="5300" vehsPerHour="24.747870776720873" departLane="free"/>
  <flow id="JF82013" begin="5240" fromJunction="J4" toJunction="J5" end="5300" vehsPerHour="41.9484956804981" departLane="free"/>
  <flow id="JF82014" begin="5240" fromJunction="J4" toJunction="J7" end="5300" vehsPerHour="39.65347270415572" departLane="free"/>
  <flow id="JF82015" begin="5240" fromJunction="J4" toJunction="J6" end="5300" vehsPerHour="16.435287315451138" departLane="free"/>
  <flow id="JF82016" begin="5240" fromJunction="J7" toJunction="J5" end="5300" vehsPerHour="28.566355977184063" departLane="free"/>
  <flow id="JF82017" begin="5240" fromJunction="J7" toJunction="J4" end="5300" vehsPerHour="0.01897708571439327" departLane="free"/>
  <flow id="JF82018" begin="5240" fromJunction="J7" toJunction="J6" end="5300" vehsPerHour="36.222307905508785" departLane="free"/>
  <flow id="JF82019" begin="5240" fromJunction="J6" toJunction="J5" end="5300" vehsPerHour="17.05155378688726" departLane="free"/>
  <flow id="JF82020" begin="5240" fromJunction="J6" toJunction="J4" end="5300" vehsPerHour="51.2906948204411" departLane="free"/>
  <flow id="JF82021" begin="5240" fromJunction="J6" toJunction="J7" end="5300" vehsPerHour="66.25232531559395" departLane="free"/>
  <flow id="JF82022" begin="5240" fromJunction="J5" toJunction="J3" end="5300" vehsPerHour="35.39232948380167" departLane="free"/>
  <flow id="JF82023" begin="5240" fromJunction="J5" toJunction="J0" end="5300" vehsPerHour="32.33583415447097" departLane="free"/>
  <flow id="JF82024" begin="5240" fromJunction="J4" toJunction="J3" end="5300" vehsPerHour="67.42654719175319" departLane="free"/>
  <flow id="JF82025" begin="5240" fromJunction="J4" toJunction="J0" end="5300" vehsPerHour="66.19217865220732" departLane="free"/>
  <flow id="JF82026" begin="5240" fromJunction="J7" toJunction="J3" end="5300" vehsPerHour="50.99417633904245" departLane="free"/>
  <flow id="JF82027" begin="5240" fromJunction="J7" toJunction="J0" end="5300" vehsPerHour="23.13268341603952" departLane="free"/>
  <flow id="JF82028" begin="5240" fromJunction="J6" toJunction="J3" end="5300" vehsPerHour="0.9324970620668294" departLane="free"/>
  <flow id="JF82029" begin="5240" fromJunction="J6" toJunction="J0" end="5300" vehsPerHour="21.27159082834136" departLane="free"/>
  <flow id="JF82030" begin="5300" fromJunction="J3" toJunction="J0" end="5360" vehsPerHour="45.8411068826731" departLane="free"/>
  <flow id="JF82031" begin="5300" fromJunction="J0" toJunction="J3" end="5360" vehsPerHour="15.27865473883066" departLane="free"/>
  <flow id="JF82032" begin="5300" fromJunction="J3" toJunction="J5" end="5360" vehsPerHour="132.8489596492789" departLane="free"/>
  <flow id="JF82033" begin="5300" fromJunction="J3" toJunction="J4" end="5360" vehsPerHour="69.4028123700501" departLane="free"/>
  <flow id="JF82034" begin="5300" fromJunction="J3" toJunction="J7" end="5360" vehsPerHour="119.51993254861628" departLane="free"/>
  <flow id="JF82035" begin="5300" fromJunction="J3" toJunction="J6" end="5360" vehsPerHour="108.07063836374522" departLane="free"/>
  <flow id="JF82036" begin="5300" fromJunction="J0" toJunction="J5" end="5360" vehsPerHour="67.37577647974769" departLane="free"/>
  <flow id="JF82037" begin="5300" fromJunction="J0" toJunction="J4" end="5360" vehsPerHour="117.57591962169595" departLane="free"/>
  <flow id="JF82038" begin="5300" fromJunction="J0" toJunction="J7" end="5360" vehsPerHour="0.05668721760021918" departLane="free"/>
  <flow id="JF82039" begin="5300" fromJunction="J0" toJunction="J6" end="5360" vehsPerHour="71.4294428493154" departLane="free"/>
  <flow id="JF82040" begin="5300" fromJunction="J5" toJunction="J4" end="5360" vehsPerHour="62.49248282861244" departLane="free"/>
  <flow id="JF82041" begin="5300" fromJunction="J5" toJunction="J7" end="5360" vehsPerHour="65.3913824948962" departLane="free"/>
  <flow id="JF82042" begin="5300" fromJunction="J5" toJunction="J6" end="5360" vehsPerHour="9.284006821864079" departLane="free"/>
  <flow id="JF82043" begin="5300" fromJunction="J4" toJunction="J5" end="5360" vehsPerHour="20.06664750539111" departLane="free"/>
  <flow id="JF82044" begin="5300" fromJunction="J4" toJunction="J7" end="5360" vehsPerHour="15.55972339633475" departLane="free"/>
  <flow id="JF82045" begin="5300" fromJunction="J4" toJunction="J6" end="5360" vehsPerHour="31.24040204004119" departLane="free"/>
  <flow id="JF82046" begin="5300" fromJunction="J7" toJunction="J5" end="5360" vehsPerHour="8.430059264330037" departLane="free"/>
  <flow id="JF82047" begin="5300" fromJunction="J7" toJunction="J4" end="5360" vehsPerHour="35.599810444679655" departLane="free"/>
  <flow id="JF82048" begin="5300" fromJunction="J7" toJunction="J6" end="5360" vehsPerHour="25.189091290674927" departLane="free"/>
  <flow id="JF82049" begin="5300" fromJunction="J6" toJunction="J5" end="5360" vehsPerHour="67.97361734255102" departLane="free"/>
  <flow id="JF82050" begin="5300" fromJunction="J6" toJunction="J4" end="5360" vehsPerHour="9.634424426410709" departLane="free"/>
  <flow id="JF82051" begin="5300" fromJunction="J6" toJunction="J7" end="5360" vehsPerHour="23.164767236680003" departLane="free"/>
  <flow id="JF82052" begin="5300" fromJunction="J5" toJunction="J3" end="5360" vehsPerHour="60.87970474729883" departLane="free"/>
  <flow id="JF82053" begin="5300" fromJunction="J5" toJunction="J0" end="5360" vehsPerHour="12.769565887108543" departLane="free"/>
  <flow id="JF82054" begin="5300" fromJunction="J4" toJunction="J3" end="5360" vehsPerHour="37.75635697664707" departLane="free"/>
  <flow id="JF82055" begin="5300" fromJunction="J4" toJunction="J0" end="5360" vehsPerHour="39.86171790941983" departLane="free"/>
  <flow id="JF82056" begin="5300" fromJunction="J7" toJunction="J3" end="5360" vehsPerHour="17.538766521529155" departLane="free"/>
  <flow id="JF82057" begin="5300" fromJunction="J7" toJunction="J0" end="5360" vehsPerHour="48.980706223943635" departLane="free"/>
  <flow id="JF82058" begin="5300" fromJunction="J6" toJunction="J3" end="5360" vehsPerHour="50.75801513490564" departLane="free"/>
  <flow id="JF82059" begin="5300" fromJunction="J6" toJunction="J0" end="5360" vehsPerHour="59.86567478351138" departLane="free"/>
  <flow id="JF82060" begin="5360" fromJunction="J3" toJunction="J0" end="5420" vehsPerHour="85.78561745577247" departLane="free"/>
  <flow id="JF82061" begin="5360" fromJunction="J0" toJunction="J3" end="5420" vehsPerHour="60.32027836329242" departLane="free"/>
  <flow id="JF82062" begin="5360" fromJunction="J3" toJunction="J5" end="5420" vehsPerHour="77.18560991826187" departLane="free"/>
  <flow id="JF82063" begin="5360" fromJunction="J3" toJunction="J4" end="5420" vehsPerHour="29.143421275587162" departLane="free"/>
  <flow id="JF82064" begin="5360" fromJunction="J3" toJunction="J7" end="5420" vehsPerHour="133.98094078608673" departLane="free"/>
  <flow id="JF82065" begin="5360" fromJunction="J3" toJunction="J6" end="5420" vehsPerHour="12.335267251261055" departLane="free"/>
  <flow id="JF82066" begin="5360" fromJunction="J0" toJunction="J5" end="5420" vehsPerHour="6.687114329574653" departLane="free"/>
  <flow id="JF82067" begin="5360" fromJunction="J0" toJunction="J4" end="5420" vehsPerHour="87.57860878822167" departLane="free"/>
  <flow id="JF82068" begin="5360" fromJunction="J0" toJunction="J7" end="5420" vehsPerHour="42.80243783774645" departLane="free"/>
  <flow id="JF82069" begin="5360" fromJunction="J0" toJunction="J6" end="5420" vehsPerHour="52.35030453802003" departLane="free"/>
  <flow id="JF82070" begin="5360" fromJunction="J5" toJunction="J4" end="5420" vehsPerHour="29.537907108574466" departLane="free"/>
  <flow id="JF82071" begin="5360" fromJunction="J5" toJunction="J7" end="5420" vehsPerHour="39.165812129054835" departLane="free"/>
  <flow id="JF82072" begin="5360" fromJunction="J5" toJunction="J6" end="5420" vehsPerHour="65.80373154368901" departLane="free"/>
  <flow id="JF82073" begin="5360" fromJunction="J4" toJunction="J5" end="5420" vehsPerHour="15.061153725080697" departLane="free"/>
  <flow id="JF82074" begin="5360" fromJunction="J4" toJunction="J7" end="5420" vehsPerHour="19.079168292194836" departLane="free"/>
  <flow id="JF82075" begin="5360" fromJunction="J4" toJunction="J6" end="5420" vehsPerHour="67.59543572270904" departLane="free"/>
  <flow id="JF82076" begin="5360" fromJunction="J7" toJunction="J5" end="5420" vehsPerHour="14.016557059931188" departLane="free"/>
  <flow id="JF82077" begin="5360" fromJunction="J7" toJunction="J4" end="5420" vehsPerHour="46.86666074011488" departLane="free"/>
  <flow id="JF82078" begin="5360" fromJunction="J7" toJunction="J6" end="5420" vehsPerHour="64.2605736120323" departLane="free"/>
  <flow id="JF82079" begin="5360" fromJunction="J6" toJunction="J5" end="5420" vehsPerHour="14.945628369645451" departLane="free"/>
  <flow id="JF82080" begin="5360" fromJunction="J6" toJunction="J4" end="5420" vehsPerHour="52.156324812983264" departLane="free"/>
  <flow id="JF82081" begin="5360" fromJunction="J6" toJunction="J7" end="5420" vehsPerHour="6.539343903522207" departLane="free"/>
  <flow id="JF82082" begin="5360" fromJunction="J5" toJunction="J3" end="5420" vehsPerHour="23.011925832836376" departLane="free"/>
  <flow id="JF82083" begin="5360" fromJunction="J5" toJunction="J0" end="5420" vehsPerHour="3.287622904354878" departLane="free"/>
  <flow id="JF82084" begin="5360" fromJunction="J4" toJunction="J3" end="5420" vehsPerHour="25.96520279544847" departLane="free"/>
  <flow id="JF82085" begin="5360" fromJunction="J4" toJunction="J0" end="5420" vehsPerHour="58.7506252757972" departLane="free"/>
  <flow id="JF82086" begin="5360" fromJunction="J7" toJunction="J3" end="5420" vehsPerHour="54.769438682049355" departLane="free"/>
  <flow id="JF82087" begin="5360" fromJunction="J7" toJunction="J0" end="5420" vehsPerHour="46.16911429389448" departLane="free"/>
  <flow id="JF82088" begin="5360" fromJunction="J6" toJunction="J3" end="5420" vehsPerHour="52.84040963062887" departLane="free"/>
  <flow id="JF82089" begin="5360" fromJunction="J6" toJunction="J0" end="5420" vehsPerHour="57.48242660799864" departLane="free"/>
  <flow id="JF82090" begin="5420" fromJunction="J3" toJunction="J0" end="5480" vehsPerHour="114.20094494983213" departLane="free"/>
  <flow id="JF82091" begin="5420" fromJunction="J0" toJunction="J3" end="5480" vehsPerHour="96.46326670300155" departLane="free"/>
  <flow id="JF82092" begin="5420" fromJunction="J3" toJunction="J5" end="5480" vehsPerHour="40.601056508019795" departLane="free"/>
  <flow id="JF82093" begin="5420" fromJunction="J3" toJunction="J4" end="5480" vehsPerHour="27.35511695088131" departLane="free"/>
  <flow id="JF82094" begin="5420" fromJunction="J3" toJunction="J7" end="5480" vehsPerHour="32.13560476482553" departLane="free"/>
  <flow id="JF82095" begin="5420" fromJunction="J3" toJunction="J6" end="5480" vehsPerHour="113.64339444353476" departLane="free"/>
  <flow id="JF82096" begin="5420" fromJunction="J0" toJunction="J5" end="5480" vehsPerHour="126.71595030329749" departLane="free"/>
  <flow id="JF82097" begin="5420" fromJunction="J0" toJunction="J4" end="5480" vehsPerHour="109.0195193708793" departLane="free"/>
  <flow id="JF82098" begin="5420" fromJunction="J0" toJunction="J7" end="5480" vehsPerHour="131.36918963182163" departLane="free"/>
  <flow id="JF82099" begin="5420" fromJunction="J0" toJunction="J6" end="5480" vehsPerHour="132.22261944280922" departLane="free"/>
  <flow id="JF82100" begin="5420" fromJunction="J5" toJunction="J4" end="5480" vehsPerHour="3.9159584659278894" departLane="free"/>
  <flow id="JF82101" begin="5420" fromJunction="J5" toJunction="J7" end="5480" vehsPerHour="31.7504988290652" departLane="free"/>
  <flow id="JF82102" begin="5420" fromJunction="J5" toJunction="J6" end="5480" vehsPerHour="11.737081628053376" departLane="free"/>
  <flow id="JF82103" begin="5420" fromJunction="J4" toJunction="J5" end="5480" vehsPerHour="67.24717989955299" departLane="free"/>
  <flow id="JF82104" begin="5420" fromJunction="J4" toJunction="J7" end="5480" vehsPerHour="66.79537972618766" departLane="free"/>
  <flow id="JF82105" begin="5420" fromJunction="J4" toJunction="J6" end="5480" vehsPerHour="32.88771938431789" departLane="free"/>
  <flow id="JF82106" begin="5420" fromJunction="J7" toJunction="J5" end="5480" vehsPerHour="10.227874140727234" departLane="free"/>
  <flow id="JF82107" begin="5420" fromJunction="J7" toJunction="J4" end="5480" vehsPerHour="26.744628143198828" departLane="free"/>
  <flow id="JF82108" begin="5420" fromJunction="J7" toJunction="J6" end="5480" vehsPerHour="25.769991946583207" departLane="free"/>
  <flow id="JF82109" begin="5420" fromJunction="J6" toJunction="J5" end="5480" vehsPerHour="44.52605883517156" departLane="free"/>
  <flow id="JF82110" begin="5420" fromJunction="J6" toJunction="J4" end="5480" vehsPerHour="19.121159858609747" departLane="free"/>
  <flow id="JF82111" begin="5420" fromJunction="J6" toJunction="J7" end="5480" vehsPerHour="47.12450639568232" departLane="free"/>
  <flow id="JF82112" begin="5420" fromJunction="J5" toJunction="J3" end="5480" vehsPerHour="46.241407078877806" departLane="free"/>
  <flow id="JF82113" begin="5420" fromJunction="J5" toJunction="J0" end="5480" vehsPerHour="27.0381337661663" departLane="free"/>
  <flow id="JF82114" begin="5420" fromJunction="J4" toJunction="J3" end="5480" vehsPerHour="35.69944360709602" departLane="free"/>
  <flow id="JF82115" begin="5420" fromJunction="J4" toJunction="J0" end="5480" vehsPerHour="67.13365230577723" departLane="free"/>
  <flow id="JF82116" begin="5420" fromJunction="J7" toJunction="J3" end="5480" vehsPerHour="1.234505223563686" departLane="free"/>
  <flow id="JF82117" begin="5420" fromJunction="J7" toJunction="J0" end="5480" vehsPerHour="14.293213513767784" departLane="free"/>
  <flow id="JF82118" begin="5420" fromJunction="J6" toJunction="J3" end="5480" vehsPerHour="37.77571453175152" departLane="free"/>
  <flow id="JF82119" begin="5420" fromJunction="J6" toJunction="J0" end="5480" vehsPerHour="58.75043855767766" departLane="free"/>
  <flow id="JF82120" begin="5480" fromJunction="J3" toJunction="J0" end="5540" vehsPerHour="135.59880034940704" departLane="free"/>
  <flow id="JF82121" begin="5480" fromJunction="J0" toJunction="J3" end="5540" vehsPerHour="94.3622868333278" departLane="free"/>
  <flow id="JF82122" begin="5480" fromJunction="J3" toJunction="J5" end="5540" vehsPerHour="70.29317214738806" departLane="free"/>
  <flow id="JF82123" begin="5480" fromJunction="J3" toJunction="J4" end="5540" vehsPerHour="73.35628903673175" departLane="free"/>
  <flow id="JF82124" begin="5480" fromJunction="J3" toJunction="J7" end="5540" vehsPerHour="52.51964128576821" departLane="free"/>
  <flow id="JF82125" begin="5480" fromJunction="J3" toJunction="J6" end="5540" vehsPerHour="109.93405192279629" departLane="free"/>
  <flow id="JF82126" begin="5480" fromJunction="J0" toJunction="J5" end="5540" vehsPerHour="135.55200811696605" departLane="free"/>
  <flow id="JF82127" begin="5480" fromJunction="J0" toJunction="J4" end="5540" vehsPerHour="5.250597541784664" departLane="free"/>
  <flow id="JF82128" begin="5480" fromJunction="J0" toJunction="J7" end="5540" vehsPerHour="79.54822999160514" departLane="free"/>
  <flow id="JF82129" begin="5480" fromJunction="J0" toJunction="J6" end="5540" vehsPerHour="114.38409621618993" departLane="free"/>
  <flow id="JF82130" begin="5480" fromJunction="J5" toJunction="J4" end="5540" vehsPerHour="41.869511936068974" departLane="free"/>
  <flow id="JF82131" begin="5480" fromJunction="J5" toJunction="J7" end="5540" vehsPerHour="41.06068220274571" departLane="free"/>
  <flow id="JF82132" begin="5480" fromJunction="J5" toJunction="J6" end="5540" vehsPerHour="62.477621662329646" departLane="free"/>
  <flow id="JF82133" begin="5480" fromJunction="J4" toJunction="J5" end="5540" vehsPerHour="5.180824763448491" departLane="free"/>
  <flow id="JF82134" begin="5480" fromJunction="J4" toJunction="J7" end="5540" vehsPerHour="59.267329270167956" departLane="free"/>
  <flow id="JF82135" begin="5480" fromJunction="J4" toJunction="J6" end="5540" vehsPerHour="32.666660454354925" departLane="free"/>
  <flow id="JF82136" begin="5480" fromJunction="J7" toJunction="J5" end="5540" vehsPerHour="6.371409865278357" departLane="free"/>