<?xml version="1.0" encoding="UTF-8"?>
<routes xmlns:xsi="http://www.w3.org/2001/XMLSchema-instance" xsi:noNamespaceSchemaLocation="http://sumo.dlr.de/xsd/routes_file.xsd">
  <flow id="JF87610" begin="0" fromJunction="J3" toJunction="J0" end="5000" vehsPerHour="63.6960640822622" departLane="free"/>
  <flow id="JF87611" begin="0" fromJunction="J0" toJunction="J3" end="5000" vehsPerHour="90.70040840956992" departLane="free"/>
  <flow id="JF87612" begin="0" fromJunction="J3" toJunction="J5" end="5000" vehsPerHour="28.47850145522737" departLane="free"/>
  <flow id="JF87613" begin="0" fromJunction="J3" toJunction="J4" end="5000" vehsPerHour="309.1985751275278" departLane="free"/>
  <flow id="JF87614" begin="0" fromJunction="J3" toJunction="J7" end="5000" vehsPerHour="455.30254682492574" departLane="free"/>
  <flow id="JF87615" begin="0" fromJunction="J3" toJunction="J6" end="5000" vehsPerHour="215.64128074911983" departLane="free"/>
  <flow id="JF87616" begin="0" fromJunction="J0" toJunction="J5" end="5000" vehsPerHour="351.0572935327417" departLane="free"/>
  <flow id="JF87617" begin="0" fromJunction="J0" toJunction="J4" end="5000" vehsPerHour="499.1020407530686" departLane="free"/>
  <flow id="JF87618" begin="0" fromJunction="J0" toJunction="J7" end="5000" vehsPerHour="21.332972248498837" departLane="free"/>
  <flow id="JF87619" begin="0" fromJunction="J0" toJunction="J6" end="5000" vehsPerHour="480.0205290762307" departLane="free"/>
  <flow id="JF87620" begin="0" fromJunction="J5" toJunction="J4" end="5000" vehsPerHour="53.351909766936444" departLane="free"/>
  <flow id="JF87621" begin="0" fromJunction="J5" toJunction="J7" end="5000" vehsPerHour="21.451305459139537" departLane="free"/>
  <flow id="JF87622" begin="0" fromJunction="J5" toJunction="J6" end="5000" vehsPerHour="58.057301930424835" departLane="free"/>
  <flow id="JF87623" begin="0" fromJunction="J4" toJunction="J5" end="5000" vehsPerHour="22.88747099262688" departLane="free"/>
  <flow id="JF87624" begin="0" fromJunction="J4" toJunction="J7" end="5000" vehsPerHour="3.77470372111682" departLane="free"/>
  <flow id="JF87625" begin="0" fromJunction="J4" toJunction="J6" end="5000" vehsPerHour="16.972127934338825" departLane="free"/>
  <flow id="JF87626" begin="0" fromJunction="J7" toJunction="J5" end="5000" vehsPerHour="28.558564870107116" departLane="free"/>
  <flow id="JF87627" begin="0" fromJunction="J7" toJunction="J4" end="5000" vehsPerHour="61.285986426174524" departLane="free"/>
  <flow id="JF87628" begin="0" fromJunction="J7" toJunction="J6" end="5000" vehsPerHour="56.39801370760762" departLane="free"/>
  <flow id="JF87629" begin="0" fromJunction="J6" toJunction="J5" end="5000" vehsPerHour="51.92578201562311" departLane="free"/>
  <flow id="JF87630" begin="0" fromJunction="J6" toJunction="J4" end="5000" vehsPerHour="25.194393699732263" departLane="free"/>
  <flow id="JF87631" begin="0" fromJunction="J6" toJunction="J7" end="5000" vehsPerHour="61.869507807130205" departLane="free"/>
  <flow id="JF87632" begin="0" fromJunction="J5" toJunction="J3" end="5000" vehsPerHour="78.8020699653074" departLane="free"/>
  <flow id="JF87633" begin="0" fromJunction="J5" toJunction="J0" end="5000" vehsPerHour="191.97985672058513" departLane="free"/>
  <flow id="JF87634" begin="0" fromJunction="J4" toJunction="J3" end="5000" vehsPerHour="218.8382864594242" departLane="free"/>
  <flow id="JF87635" begin="0" fromJunction="J4" toJunction="J0" end="5000" vehsPerHour="151.33742009978747" departLane="free"/>
  <flow id="JF87636" begin="0" fromJunction="J7" toJunction="J3" end="5000" vehsPerHour="33.901564206869956" departLane="free"/>
  <flow id="JF87637" begin="0" fromJunction="J7" toJunction="J0" end="5000" vehsPerHour="232.19613666695227" departLane="free"/>
  <flow id="JF87638" begin="0" fromJunction="J6" toJunction="J3" end="5000" vehsPerHour="193.7480214645975" departLane="free"/>
  <flow id="JF87639" begin="0" fromJunction="J6" toJunction="J0" end="5000" vehsPerHour="211.86229033911147" departLane="free"/>
  <flow id="JF87640" begin="5000" fromJunction="J3" toJunction="J0" end="5060" vehsPerHour="27.322473000131872" departLane="free"/>
  <flow id="JF87641" begin="5000" fromJunction="J0" toJunction="J3" end="5060" vehsPerHour="48.48410827252659" departLane="free"/>
  <flow id="JF87642" begin="5000" fromJunction="J3" toJunction="J5" end="5060" vehsPerHour="26.461015799358638" departLane="free"/>
  <flow id="JF87643" begin="5000" fromJunction="J3" toJunction="J4" end="5060" vehsPerHour="87.30982050710239" departLane="free"/>
  <flow id="JF87644" begin="5000" fromJunction="J3" toJunction="J7" end="5060" vehsPerHour="31.419797713890713" departLane="free"/>
  <flow id="JF87645" begin="5000" fromJunction="J3" toJunction="J6" end="5060" vehsPerHour="73.74529104189087" departLane="free"/>
  <flow id="JF87646" begin="5000" fromJunction="J0" toJunction="J5" end="5060" vehsPerHour="88.42756276528355" departLane="free"/>
  <flow id="JF87647" begin="5000" fromJunction="J0" toJunction="J4" end="5060" vehsPerHour="16.25485416766782" departLane="free"/>
  <flow id="JF87648" begin="5000" fromJunction="J0" toJunction="J7" end="5060" vehsPerHour="97.67445375436805" departLane="free"/>
  <flow id="JF87649" begin="5000" fromJunction="J0" toJunction="J6" end="5060" vehsPerHour="116.00101384241259" departLane="free"/>
  <flow id="JF87650" begin="5000" fromJunction="J5" toJunction="J4" end="5060" vehsPerHour="30.611338830464387" departLane="free"/>
  <flow id="JF87651" begin="5000" fromJunction="J5" toJunction="J7" end="5060" vehsPerHour="18.586814927388026" departLane="free"/>
  <flow id="JF87652" begin="5000" fromJunction="J5" toJunction="J6" end="5060" vehsPerHour="18.449349127451615" departLane="free"/>
  <flow id="JF87653" begin="5000" fromJunction="J4" toJunction="J5" end="5060" vehsPerHour="40.874883579076204" departLane="free"/>
  <flow id="JF87654" begin="5000" fromJunction="J4" toJunction="J7" end="5060" vehsPerHour="4.231661479410414" departLane="free"/>
  <flow id="JF87655" begin="5000" fromJunction="J4" toJunction="J6" end="5060" vehsPerHour="19.844143734174647" departLane="free"/>
  <flow id="JF87656" begin="5000" fromJunction="J7" toJunction="J5" end="5060" vehsPerHour="53.02522272090734" departLane="free"/>
  <flow id="JF87657" begin="5000" fromJunction="J7" toJunction="J4" end="5060" vehsPerHour="48.854138229476575" departLane="free"/>
  <flow id="JF87658" begin="5000" fromJunction="J7" toJunction="J6" end="5060" vehsPerHour="11.148783373525083" departLane="free"/>
  <flow id="JF87659" begin="5000" fromJunction="J6" toJunction="J5" end="5060" vehsPerHour="49.70939163209944" departLane="free"/>
  <flow id="JF87660" begin="5000" fromJunction="J6" toJunction="J4" end="5060" vehsPerHour="1.0677445690738732" departLane="free"/>
  <flow id="JF87661" begin="5000" fromJunction="J6" toJunction="J7" end="5060" vehsPerHour="36.895728038329366" departLane="free"/>
  <flow id="JF87662" begin="5000" fromJunction="J5" toJunction="J3" end="5060" vehsPerHour="7.942781434630319" departLane="free"/>
  <flow id="JF87663" begin="5000" fromJunction="J5" toJunction="J0" end="5060" vehsPerHour="2.809460320311067" departLane="free"/>
  <flow id="JF87664" begin="5000" fromJunction="J4" toJunction="J3" end="5060" vehsPerHour="63.60784591719405" departLane="free"/>
  <flow id="JF87665" begin="5000" fromJunction="J4" toJunction="J0" end="5060" vehsPerHour="49.08290196667712" departLane="free"/>
  <flow id="JF87666" begin="5000" fromJunction="J7" toJunction="J3" end="5060" vehsPerHour="52.68742132922359" departLane="free"/>
  <flow id="JF87667" begin="5000" fromJunction="J7" toJunction="J0" end="5060" vehsPerHour="3.7309585311229028" departLane="free"/>
  <flow id="JF87668" begin="5000" fromJunction="J6" toJunction="J3" end="5060" vehsPerHour="1.8778223433041978" departLane="free"/>
  <flow id="JF87669" begin="5000" fromJunction="J6" toJunction="J0" end="5060" vehsPerHour="53.47329642458754" departLane="free"/>
  <flow id="JF87670" begin="5060" fromJunction="J3" toJunction="J0" end="5120" vehsPerHour="111.01467105726688" departLane="free"/>
  <flow id="JF87671" begin="5060" fromJunction="J0" toJunction="J3" end="5120" vehsPerHour="58.998008835227786" departLane="free"/>
  <flow id="JF87672" begin="5060" fromJunction="J3" toJunction="J5" end="5120" vehsPerHour="35.31691538845479" departLane="free"/>
  <flow id="JF87673" begin="5060" fromJunction="J3" toJunction="J4" end="5120" vehsPerHour="33.674788603085226" departLane="free"/>
  <flow id="JF87674" begin="5060" fromJunction="J3" toJunction="J7" end="5120" vehsPerHour="86.87870784664504" departLane="free"/>
  <flow id="JF87675" begin="5060" fromJunction="J3" toJunction="J6" end="5120" vehsPerHour="29.310925317123473" departLane="free"/>
  <flow id="JF87676" begin="5060" fromJunction="J0" toJunction="J5" end="5120" vehsPerHour="88.9965004542569" departLane="free"/>
  <flow id="JF87677" begin="5060" fromJunction="J0" toJunction="J4" end="5120" vehsPerHour="55.30939262714013" departLane="free"/>
  <flow id="JF87678" begin="5060" fromJunction="J0" toJunction="J7" end="5120" vehsPerHour="27.494268985750942" departLane="free"/>
  <flow id="JF87679" begin="5060" fromJunction="J0" toJunction="J6" end="5120" vehsPerHour="99.08104876200733" departLane="free"/>
  <flow id="JF87680" begin="5120" fromJunction="J3" toJunction="J0" end="5180" vehsPerHour="35.75103782343289" departLane="free"/>
  <flow id="JF87681" begin="5120" fromJunction="J0" toJunction="J3" end="5180" vehsPerHour="119.95425418302128" departLane="free"/>
  <flow id="JF87682" begin="5120" fromJunction="J3" toJunction="J5" end="5180" vehsPerHour="94.37243993423999" departLane="free"/>
  <flow id="JF87683" begin="5120" fromJunction="J3" toJunction="J4" end="5180" vehsPerHour="101.9283584928489" departLane="free"/>
  <flow id="JF87684" begin="5120" fromJunction="J3" toJunction="J7" end="5180" vehsPerHour="135.45375514776086" departLane="free"/>
  <flow id="JF87685" begin="5120" fromJunction="J3" toJunction="J6" end="5180" vehsPerHour="101.14911013833078" departLane="free"/>
  <flow id="JF87686" begin="5120" fromJunction="J0" toJunction="J5" end="5180" vehsPerHour="96.22006410026401" departLane="free"/>
  <flow id="JF87687" begin="5120" fromJunction="J0" toJunction="J4" end="5180" vehsPerHour="7.517124106464907" departLane="free"/>
  <flow id="JF87688" begin="5120" fromJunction="J0" toJunction="J7" end="5180" vehsPerHour="32.95110725603927" departLane="free"/>
  <flow id="JF87689" begin="5120" fromJunction="J0" toJunction="J6" end="5180" vehsPerHour="64.66122218143406" departLane="free"/>
  <flow id="JF87690" begin="5120" fromJunction="J5" toJunction="J4" end="5180" vehsPerHour="32.906056136921734" departLane="free"/>
  <flow id="JF87691" begin="5120" fromJunction="J5" toJunction="J7" end="5180" vehsPerHour="34.436152558205585" departLane="free"/>
  <flow id="JF87692" begin="5120" fromJunction="J5" toJunction="J6" end="5180" vehsPerHour="54.02453005362545" departLane="free"/>
  <flow id="JF87693" begin="5120" fromJunction="J4" toJunction="J5" end="5180" vehsPerHour="23.963787060969086" departLane="free"/>
  <flow id="JF87694" begin="5120" fromJunction="J4" toJunction="J7" end="5180" vehsPerHour="27.942086983207215" departLane="free"/>
  <flow id="JF87695" begin="5120" fromJunction="J4" toJunction="J6" end="5180" vehsPerHour="68.56543820103734" departLane="free"/>
  <flow id="JF87696" begin="5120" fromJunction="J7" toJunction="J5" end="5180" vehsPerHour="26.353809840605372" departLane="free"/>
  <flow id="JF87697" begin="5120" fromJunction="J7" toJunction="J4" end="5180" vehsPerHour="67.31659710494978" departLane="free"/>
  <flow id="JF87698" begin="5120" fromJunction="J7" toJunction="J6" end="5180" vehsPerHour="65.917827416168" departLane="free"/>
  <flow id="JF87699" begin="5120" fromJunction="J6" toJunction="J5" end="5180" vehsPerHour="10.064414370918769" departLane="free"/>
  <flow id="JF87700" begin="5120" fromJunction="J6" toJunction="J4" end="5180" vehsPerHour="1.0719978325764974" departLane="free"/>
  <flow id="JF87701" begin="5120" fromJunction="J6" toJunction="J7" end="5180" vehsPerHour="17.58069685550368" departLane="free"/>
  <flow id="JF87702" begin="5120" fromJunction="J5" toJunction="J3" end="5180" vehsPerHour="22.139550485492062" departLane="free"/>
  <flow id="JF87703" begin="5120" fromJunction="J5" toJunction="J0" end="5180" vehsPerHour="65.58066413468165" departLane="free"/>
  <flow id="JF87704" begin="5120" fromJunction="J4" toJunction="J3" end="5180" vehsPerHour="34.4969298570298" departLane="free"/>
  <flow id="JF87705" begin="5120" fromJunction="J4" toJunction="J0" end="5180" vehsPerHour="39.23565581789822" departLane="free"/>
  <flow id="JF87706" begin="5120" fromJunction="J7" toJunction="J3" end="5180" vehsPerHour="39.27940925186089" departLane="free"/>
  <flow id="JF87707" begin="5120" fromJunction="J7" toJunction="J0" end="5180" vehsPerHour="28.331293024237365" departLane="free"/>
  <flow id="JF87708" begin="5120" fromJunction="J6" toJunction="J3" end="5180" vehsPerHour="66.12367061032734" departLane="free"/>
  <flow id="JF87709" begin="5120" fromJunction="J6" toJunction="J0" end="5180" vehsPerHour="8.339220973012782" departLane="free"/>
  <flow id="JF87710" begin="5180" fromJunction="J3" toJunction="J0" end="5240" vehsPerHour="130.01100226285237" departLane="free"/>
  <flow id="JF87711" begin="5180" fromJunction="J0" toJunction="J3" end="5240" vehsPerHour="101.92684004618172" departLane="free"/>
  <flow id="JF87712" begin="5180" fromJunction="J3" toJunction="J5" end="5240" vehsPerHour="54.99815688179238" departLane="free"/>
  <flow id="JF87713" begin="5180" fromJunction="J3" toJunction="J4" end="5240" vehsPerHour="69.18134539183278" departLane="free"/>
  <flow id="JF87714" begin="5180" fromJunction="J3" toJunction="J7" end="5240" vehsPerHour="127.8375438416901" departLane="free"/>
  <flow id="JF87715" begin="5180" fromJunction="J3" toJunction="J6" end="5240" vehsPerHour="109.24004713579595" departLane="free"/>
  <flow id="JF87716" begin="5180" fromJunction="J0" toJunction="J5" end="5240" vehsPerHour="80.87998151577617" departLane="free"/>
  <flow id="JF87717" begin="5180" fromJunction="J0" toJunction="J4" end="5240" vehsPerHour="1.5801778522399763" departLane="free"/>
  <flow id="JF87718" begin="5180" fromJunction="J0" toJunction="J7" end="5240" vehsPerHour="92.52089867820713" departLane="free"/>
  <flow id="JF87719" begin="5180" fromJunction="J0" toJunction="J6" end="5240" vehsPerHour="81.0676492717805" departLane="free"/>
  <flow id="JF87720" begin="5180" fromJunction="J5" toJunction="J4" end="5240" vehsPerHour="47.63182987210445" departLane="free"/>
  <flow id="JF87721" begin="5180" fromJunction="J5" toJunction="J7" end="5240" vehsPerHour="56.32676719542079" departLane="free"/>
  <flow id="JF87722" begin="5180" fromJunction="J5" toJunction="J6" end="5240" vehsPerHour="50.932935730294105" departLane="free"/>
  <flow id="JF87723" begin="5180" fromJunction="J4" toJunction="J5" end="5240" vehsPerHour="19.368596057950125" departLane="free"/>
  <flow id="JF87724" begin="5180" fromJunction="J4" toJunction="J7" end="5240" vehsPerHour="66.91289649383229" departLane="free"/>
  <flow id="JF87725" begin="5180" fromJunction="J4" toJunction="J6" end="5240" vehsPerHour="1.479846874129493" departLane="free"/>
  <flow id="JF87726" begin="5180" fromJunction="J7" toJunction="J5" end="5240" vehsPerHour="16.067399415788188" departLane="free"/>
  <flow id="JF87727" begin="5180" fromJunction="J7" toJunction="J4" end="5240" vehsPerHour="52.93068961358269" departLane="free"/>
  <flow id="JF87728" begin="5180" fromJunction="J7" toJunction="J6" end="5240" vehsPerHour="55.00927438473326" departLane="free"/>
  <flow id="JF87729" begin="5180" fromJunction="J6" toJunction="J5" end="5240" vehsPerHour="1.277223335481403" departLane="free"/>
  <flow id="JF87730" begin="5180" fromJunction="J6" toJunction="J4" end="5240" vehsPerHour="43.13056011156903" departLane="free"/>
  <flow id="JF87731" begin="5180" fromJunction="J6" toJunction="J7" end="5240" vehsPerHour="37.8420819694335" departLane="free"/>
  <flow id="JF87732" begin="5180" fromJunction="J5" toJunction="J3" end="5240" vehsPerHour="13.437746203710208" departLane="free"/>
  <flow id="JF87733" begin="5180" fromJunction="J5" toJunction="J0" end="5240" vehsPerHour="29.309671252311645" departLane="free"/>
  <flow id="JF87734" begin="5180" fromJunction="J4" toJunction="J3" end="5240" vehsPerHour="17.73847983525685" departLane="free"/>
  <flow id="JF87735" begin="5180" fromJunction="J4" toJunction="J0" end="5240" vehsPerHour="35.36084744452226" departLane="free"/>
  <flow id="JF87736" begin="5180" fromJunction="J7" toJunction="J3" end="5240" vehsPerHour="18.649658070543307" departLane="free"/>
  <flow id="JF87737" begin="5180" fromJunction="J7" toJunction="J0" end="5240" vehsPerHour="20.817790513292135" departLane="free"/>
  <flow id="JF87738" begin="5180" fromJunction="J6" toJunction="J3" end="5240" vehsPerHour="1.3593590575371144" departLane="free"/>
  <flow id="JF87739" begin="5180" fromJunction="J6" toJunction="J0" end="5240" vehsPerHour="25.770247831903156" departLane="free"/>
  <flow id="JF87740" begin="5240" fromJunction="J3" toJunction="J0" end="5300" vehsPerHour="61.55995115682157" departLane="free"/>
  <flow id="JF87741" begin="5240" fromJunction="J0" toJunction="J3" end="5300" vehsPerHour="92.11258630756008" departLane="free"/>
  <flow id="JF87742" begin="5240" fromJunction="J3" toJunction="J5" end="5300" vehsPerHour="32.143170107034656" departLane="free"/>
  <flow id="JF87743" begin="5240" fromJunction="J3" toJunction="J4" end="5300" vehsPerHour="1.6423556160127266" departLane="free"/>
  <flow id="JF87744" begin="5240" fromJunction="J3" toJunction="J7" end="5300" vehsPerHour="26.32686387279152" departLane="free"/>
  <flow id="JF87745" begin="5240" fromJunction="J3" toJunction="J6" end="5300" vehsPerHour="131.43957044140225" departLane="free"/>
  <flow id="JF87746" begin="5240" fromJunction="J0" toJunction="J5" end="5300" vehsPerHour="94.98934018895142" departLane="free"/>
  <flow id="JF87747" begin="5240" fromJunction="J0" toJunction="J4" end="5300" vehsPerHour="62.96524986055137" departLane="free"/>
  <flow id="JF87748" begin="5240" fromJunction="J0" toJunction="J7" end="5300" vehsPerHour="54.84237232052055" departLane="free"/>
  <flow id="JF87749" begin="5240" fromJunction="J0" toJunction="J6" end="5300" vehsPerHour="14.34377942156679" departLane="free"/>
  <flow id="JF87750" begin="5240" fromJunction="J5" toJunction="J4" end="5300" vehsPerHour="66.9212863357762" departLane="free"/>
  <flow id="JF87751" begin="5240" fromJunction="J5" toJunction="J7" end="5300" vehsPerHour="3.9518679573194233" departLane="free"/>
  <flow id="JF87752" begin="5240" fromJunction="J5" toJunction="J6" end="5300" vehsPerHour="42.57413663372174" departLane="free"/>
  <flow id="JF87753" begin="5240" fromJunction="J4" toJunction="J5" end="5300" vehsPerHour="33.973185258477166" departLane="free"/>
  <flow id="JF87754" begin="5240" fromJunction="J4" toJunction="J7" end="5300" vehsPerHour="15.762356589843897" departLane="free"/>
  <flow id="JF87755" begin="5240" fromJunction="J4" toJunction="J6" end="5300" vehsPerHour="18.450264615457673" departLane="free"/>
  <flow id="JF87756" begin="5240" fromJunction="J7" toJunction="J5" end="5300" vehsPerHour="23.761860662690648" departLane="free"/>
  <flow id="JF87757" begin="5240" fromJunction="J7" toJunction="J4" end="5300" vehsPerHour="31.479840662453512" departLane="free"/>
  <flow id="JF87758" begin="5240" fromJunction="J7" toJunction="J6" end="5300" vehsPerHour="51.08128922758404" departLane="free"/>
  <flow id="JF87759" begin="5240" fromJunction="J6" toJunction="J5" end="5300" vehsPerHour="49.33499567307125" departLane="free"/>
  <flow id="JF87760" begin="5240" fromJunction="J6" toJunction="J4" end="5300" vehsPerHour="32.029084964621426" departLane="free"/>
  <flow id="JF87761" begin="5240" fromJunction="J6" toJunction="J7" end="5300" vehsPerHour="33.902073378450574" departLane="free"/>
  <flow id="JF87762" begin="5240" fromJunction="J5" toJunction="J3" end="5300" vehsPerHour="26.65037284784877" departLane="free"/>
  <flow id="JF87763" begin="5240" fromJunction="J5" toJunction="J0" end="5300" vehsPerHour="44.76814666194617" departLane="free"/>
  <flow id="JF87764" begin="5240" fromJunction="J4" toJunction="J3" end="5300" vehsPerHour="52.44855945999092" departLane="free"/>
  <flow id="JF87765" begin="5240" fromJunction="J4" toJunction="J0" end="5300" vehsPerHour="31.12696860373096" departLane="free"/>
  <flow id="JF87766" begin="5240" fromJunction="J7" toJunction="J3" end="5300" vehsPerHour="49.36615912809082" departLane="free"/>
  <flow id="JF87767" begin="5240" fromJunction="J7" toJunction="J0" end="5300" vehsPerHour="5.371875735340838" departLane="free"/>
  <flow id="JF87768" begin="5240" fromJunction="J6" toJunction="J3" end="5300" vehsPerHour="10.622069909901048" departLane="free"/>
  <flow id="JF87769" begin="5240" fromJunction="J6" toJunction="J0" end="5300" vehsPerHour="28.931151015569835" departLane="free"/>
  <flow id="JF87770" begin="5300" fromJunction="J3" toJunction="J0" end="5360" vehsPerHour="78.68266687230418" departLane="free"/>
  <flow id="JF87771" begin="5300" fromJunction="J0" toJunction="J3" end="5360" vehsPerHour="28.924647837241874" departLane="free"/>
  <flow id="JF87772" begin="5300" fromJunction="J3" toJunction="J5" end="5360" vehsPerHour="96.6564539325019" departLane="free"/>
  <flow id="JF87773" begin="5300" fromJunction="J3" toJunction="J4" end="5360" vehsPerHour="76.96162030962657" departLane="free"/>
  <flow id="JF87774" begin="5300" fromJunction="J3" toJunction="J7" end="5360" vehsPerHour="55.33737026016694" departLane="free"/>
  <flow id="JF87775" begin="5300" fromJunction="J3" toJunction="J6" end="5360" vehsPerHour="132.71782327951328" departLane="free"/>
  <flow id="JF87776" begin="5300" fromJunction="J0" toJunction="J5" end="5360" vehsPerHour="0.12332973065646287" departLane="free"/>
  <flow id="JF87777" begin="5300" fromJunction="J0" toJunction="J4" end="5360" vehsPerHour="50.24071068361069" departLane="free"/>
  <flow id="JF87778" begin="5300" fromJunction="J0" toJunction="J7" end="5360" vehsPerHour="93.60360549144679" departLane="free"/>
  <flow id="JF87779" begin="5300" fromJunction="J0" toJunction="J6" end="5360" vehsPerHour="77.78148554610983" departLane="free"/>
  <flow id="JF87780" begin="5360" fromJunction="J3" toJunction="J0" end="5420" vehsPerHour="12.13925347981736" departLane="free"/>
  <flow id="JF87781" begin="5360" fromJunction="J0" toJunction="J3" end="5420" vehsPerHour="59.27009624791128" departLane="free"/>
  <flow id="JF87782" begin="5360" fromJunction="J3" toJunction="J5" end="5420" vehsPerHour="108.06135921536645" departLane="free"/>
  <flow id="JF87783" begin="5360" fromJunction="J3" toJunction="J4" end="5420" vehsPerHour="13.580996852020922" departLane="free"/>
  <flow id="JF87784" begin="5360" fromJunction="J3" toJunction="J7" end="5420" vehsPerHour="53.896958476700966" departLane="free"/>
  <flow id="JF87785" begin="5360" fromJunction="J3" toJunction="J6" end="5420" vehsPerHour="99.75826139854362" departLane="free"/>
  <flow id="JF87786" begin="5360" fromJunction="J0" toJunction="J5" end="5420" vehsPerHour="1.517443010926556" departLane="free"/>
  <flow id="JF87787" begin="5360" fromJunction="J0" toJunction="J4" end="5420" vehsPerHour="26.050912884344733" departLane="free"/>
  <flow id="JF87788" begin="5360" fromJunction="J0" toJunction="J7" end="5420" vehsPerHour="62.611504590876166" departLane="free"/>
  <flow id="JF87789" begin="5360" fromJunction="J0" toJunction="J6" end="5420" vehsPerHour="77.78181295117903" departLane="free"/>
  <flow id="JF87790" begin="5420" fromJunction="J3" toJunction="J0" end="5480" vehsPerHour="111.29441973177352" departLane="free"/>
  <flow id="JF87791" begin="5420" fromJunction="J0" toJunction="J3" end="5480" vehsPerHour="4.300842359305395" departLane="free"/>
  <flow id="JF87792" begin="5420" fromJunction="J3" toJunction="J5" end="5480" vehsPerHour="60.6824736112871" departLane="free"/>
  <flow id="JF87793" begin="5420" fromJunction="J3" toJunction="J4" end="5480" vehsPerHour="91.98688872456486" departLane="free"/>
  <flow id="JF87794" begin="5420" fromJunction="J3" toJunction="J7" end="5480" vehsPerHour="15.058943575088044" departLane="free"/>
  <flow id="JF87795" begin="5420" fromJunction="J3" toJunction="J6" end="5480" vehsPerHour="16.38154079447513" departLane="free"/>
  <flow id="JF87796" begin="5420" fromJunction="J0" toJunction="J5" end="5480" vehsPerHour="26.28556929911051" departLane="free"/>
  <flow id="JF87797" begin="5420" fromJunction="J0" toJunction="J4" end="5480" vehsPerHour="74.31167260015717" departLane="free"/>
  <flow id="JF87798" begin="5420" fromJunction="J0" toJunction="J7" end="5480" vehsPerHour="28.943748563482657" departLane="free"/>
  <flow id="JF87799" begin="5420" fromJunction="J0" toJunction="J6" end="5480" vehsPerHour="82.7643330249593" departLane="free"/>
  <flow id="JF87800" begin="5480" fromJunction="J3" toJunction="J0" end="5540" vehsPerHour="36.933810009424676" departLane="free"/>
  <flow id="JF87801" begin="5480" fromJunction="J0" toJunction="J3" end="5540" vehsPerHour="31.538959597043718" departLane="free"/>
  <flow id="JF87802" begin="5480" fromJunction="J3" toJunction="J5" end="5540" vehsPerHour="117.00892669370405" departLane="free"/>
  <flow id="JF87803" begin="5480" fromJunction="J3" toJunction="J4" end="5540" vehsPerHour="111.97232672452014" departLane="free"/>
  <flow id="JF87804" begin="5480" fromJunction="J3" toJunction="J7" end="5540" vehsPerHour="58.71675657242232" departLane="free"/>
  <flow id="JF87805" begin="5480" fromJunction="J3" toJunction="J6" end="5540" vehsPerHour="132.67199170163974" departLane="free"/>
  <flow id="JF87806" begin="5480" fromJunction="J0" toJunction="J5" end="5540" vehsPerHour="47.17528736482375" departLane="free"/>
  <flow id="JF87807" begin="5480" fromJunction="J0" toJunction="J4" end="5540" vehsPerHour="66.59105799262176" departLane="free"/>
  <flow id="JF87808" begin="5480" fromJunction="J0" toJunction="J7" end="5540" vehsPerHour="111.84690941965943" departLane="free"/>
  <flow id="JF87809" begin="5480" fromJunction="J0" toJunction="J6" end="5540" vehsPerHour="51.82639273451828" departLane="free"/>
  <flow id="JF87810" begin="5540" fromJunction="J3" toJunction="J0" end="5600" vehsPerHour="85.5663284467764" departLane="free"/>
  <flow id="JF87811" begin="5540" fromJunction="J0" toJunction="J3" end="5600" vehsPerHour="36.404351653628204" departLane="free"/>
  <flow id="JF87812" begin="5540" fromJunction="J3" toJunction="J5" end="5600" vehsPerHour="34.54619957125443" departLane="free"/>
  <flow id="JF87813" begin="5540" fromJunction="J3" toJunction="J4" end="5600" vehsPerHour="106.76091277276878" departLane="free"/>
  <flow id="JF87814" begin="5540" fromJunction="J3" toJunction="J7" end="5600" vehsPerHour="101.76636637788243" departLane="free"/>
  <flow id="JF87815" begin="5540" fromJunction="J3" toJunction="J6" end="5600" vehsPerHour="68.72805082867507" departLane="free"/>
  <flow id="JF87816" begin="5540" fromJunction="J0" toJunction="J5" end="5600" vehsPerHour="12.225292212935294" departLane="free"/>
  <flow id="JF87817" begin="5540" fromJunction="J0" toJunction="J4" end="5600" vehsPerHour="118.62011018600023" departLane="free"/>
  <flow id="JF87818" begin="5540" fromJunction="J0" toJunction="J7" end="5600" vehsPerHour="117.74456382413807" departLane="free"/>
  <flow id="JF87819" begin="5540" fromJunction="J0" toJunction="J6" end="5600" vehsPerHour="18.42761011294089" departLane="free"/>
  <flow id="JF87820" begin="5540" fromJunction="J5" toJunction="J4" end="5600" vehsPerHour="12.044679682002283" departLane="free"/>
  <flow id="JF87821" begin="5540" fromJunction="J5" toJunction="J7" end="5600" vehsPerHour="48.39895927356214" departLane="free"/>
  <flow id="JF87822" begin="5540" fromJunction="J5" toJunction="J6" end="5600" vehsPerHour="64.31406420719502" departLane="free"/>
  <flow id="JF87823" begin="5540" fromJunction="J4" toJunction="J5" end="5600" vehsPerHour="51.08420176760425" departLane="free"/>
  <flow id="JF87824" begin="5540" fromJunction="J4" toJunction="J7" end="5600" vehsPerHour="43.563146284659815" departLane="free"/>
  <flow id="JF87825" begin="5540" fromJunction="J4" toJunction="J6" end="5600" vehsPerHour="45.42012128438623" departLane="free"/>
  <flow id="JF87826" begin="5540" fromJunction="J7" toJunction="J5" end="5600" vehsPerHour="6.065856546278954" departLane="free"/>
  <flow id="JF87827" begin="5540" fromJunction="J7" toJunction="J4" end="5600" vehsPerHour="4.97805982425476" departLane="free"/>
  <flow id="JF87828" begin="5540" fromJunction="J7" toJunction="J6" end="5600" vehsPerHour="45.327123452143674" departLane="free"/>
  <flow id="JF87829" begin="5540" fromJunction="J6" toJunction="J5" end="5600" vehsPerHour="6.747674520239321" departLane="free"/>
  <flow id="JF87830" begin="5540" fromJunction="J6" toJunction="J4" end="5600" vehsPerHour="50.652737801153215" departLane="free"/>
  <flow id="JF87831" begin="5540" fromJunction="J6" toJunction="J7" end="5600" vehsPerHour="67.06554645033944" departLane="free"/>
  <flow id="JF87832" begin="5540" fromJunction="J5" toJunction="J3" end="5600" vehsPerHour="43.989010558353776" departLane="free"/>
  <flow id="JF87833" begin="5540" fromJunction="J5" toJunction="J0" end="5600" vehsPerHour="7.8578806679374775" departLane="free"/>
  <flow id="JF87834" begin="5540" fromJunction="J4" toJunction="J3" end="5600" vehsPerHour="57.88409197476054" departLane="free"/>
  <flow id="JF87835" begin="5540" fromJunction="J4" toJunction="J0" end="5600" vehsPerHour="34.79981424915004" departLane="free"/>
  <flow id="JF87836" begin="5540" fromJunction="J7" toJunction="J3" end="5600" vehsPerHour="17.126495536406374" departLane="free"/>