<?xml version="1.0" encoding="UTF-8"?>
<routes xmlns:xsi="http://www.w3.org/2001/XMLSchema-instance" xsi:noNamespaceSchemaLocation="http://sumo.dlr.de/xsd/routes_file.xsd">
  <flow id="JF108100" begin="0" fromJunction="J3" toJunction="J0" end="60" vehsPerHour="59.70262965472005" departLane="free"/>
  <flow id="JF108101" begin="0" fromJunction="J0" toJunction="J3" end="60" vehsPerHour="109.52212713522361" departLane="free"/>
  <flow id="JF108102" begin="0" fromJunction="J3" toJunction="J7" end="60" vehsPerHour="397.2808981923168" departLane="free"/>
  <flow id="JF108103" begin="0" fromJunction="J3" toJunction="J4" end="60" vehsPerHour="182.82659087324583" departLane="free"/>
  <flow id="JF108104" begin="0" fromJunction="J3" toJunction="J6" end="60" vehsPerHour="350.4903279513274" departLane="free"/>
  <flow id="JF108105" begin="0" fromJunction="J3" toJunction="J5" end="60" vehsPerHour="394.1221830649456" departLane="free"/>
  <flow id="JF108106" begin="0" fromJunction="J0" toJunction="J7" end="60" vehsPerHour="405.80959127657036" departLane="free"/>
  <flow id="JF108107" begin="0" fromJunction="J0" toJunction="J4" end="60" vehsPerHour="400.0242946620322" departLane="free"/>
  <flow id="JF108108" begin="0" fromJunction="J0" toJunction="J6" end="60" vehsPerHour="267.5876688339291" departLane="free"/>
  <flow id="JF108109" begin="0" fromJunction="J0" toJunction="J5" end="60" vehsPerHour="471.93047388642964" departLane="free"/>
  <flow id="JF108110" begin="0" fromJunction="J7" toJunction="J4" end="60" vehsPerHour="27.523039286234617" departLane="free"/>
  <flow id="JF108111" begin="0" fromJunction="J7" toJunction="J6" end="60" vehsPerHour="28.364154822264595" departLane="free"/>
  <flow id="JF108112" begin="0" fromJunction="J7" toJunction="J5" end="60" vehsPerHour="28.59687579242067" departLane="free"/>
  <flow id="JF108113" begin="0" fromJunction="J4" toJunction="J7" end="60" vehsPerHour="18.347921873005156" departLane="free"/>
  <flow id="JF108114" begin="0" fromJunction="J4" toJunction="J6" end="60" vehsPerHour="14.916479863197125" departLane="free"/>
  <flow id="JF108115" begin="0" fromJunction="J4" toJunction="J5" end="60" vehsPerHour="5.359966539836231" departLane="free"/>
  <flow id="JF108116" begin="0" fromJunction="J6" toJunction="J7" end="60" vehsPerHour="57.44258911247064" departLane="free"/>
  <flow id="JF108117" begin="0" fromJunction="J6" toJunction="J4" end="60" vehsPerHour="10.877652949980142" departLane="free"/>
  <flow id="JF108118" begin="0" fromJunction="J6" toJunction="J5" end="60" vehsPerHour="13.523519457861402" departLane="free"/>
  <flow id="JF108119" begin="0" fromJunction="J5" toJunction="J7" end="60" vehsPerHour="42.82556495962402" departLane="free"/>
  <flow id="JF108120" begin="0" fromJunction="J5" toJunction="J4" end="60" vehsPerHour="12.511568194367575" departLane="free"/>
  <flow id="JF108121" begin="0" fromJunction="J5" toJunction="J6" end="60" vehsPerHour="61.2564362949979" departLane="free"/>
  <flow id="JF108122" begin="0" fromJunction="J7" toJunction="J3" end="60" vehsPerHour="65.12025704292867" departLane="free"/>
  <flow id="JF108123" begin="0" fromJunction="J7" toJunction="J0" end="60" vehsPerHour="1.5315356495589372" departLane="free"/>
  <flow id="JF108124" begin="0" fromJunction="J4" toJunction="J3" end="60" vehsPerHour="126.76257716221572" departLane="free"/>
  <flow id="JF108125" begin="0" fromJunction="J4" toJunction="J0" end="60" vehsPerHour="1.210848424830881" departLane="free"/>
  <flow id="JF108126" begin="0" fromJunction="J6" toJunction="J3" end="60" vehsPerHour="83.1811500291609" departLane="free"/>
  <flow id="JF108127" begin="0" fromJunction="J6" toJunction="J0" end="60" vehsPerHour="59.47855049499403" departLane="free"/>
  <flow id="JF108128" begin="0" fromJunction="J5" toJunction="J3" end="60" vehsPerHour="116.53630642099829" departLane="free"/>
  <flow id="JF108129" begin="0" fromJunction="J5" toJunction="J0" end="60" vehsPerHour="104.40434893922875" departLane="free"/>
  <flow id="JF108130" begin="60" fromJunction="J3" toJunction="J0" end="120" vehsPerHour="33.69388637336877" departLane="free"/>
  <flow id="JF108131" begin="60" fromJunction="J0" toJunction="J3" end="120" vehsPerHour="66.32050321391505" departLane="free"/>
  <flow id="JF108132" begin="60" fromJunction="J3" toJunction="J7" end="120" vehsPerHour="481.087428505094" departLane="free"/>
  <flow id="JF108133" begin="60" fromJunction="J3" toJunction="J4" end="120" vehsPerHour="345.04829500040927" departLane="free"/>
  <flow id="JF108134" begin="60" fromJunction="J3" toJunction="J6" end="120" vehsPerHour="484.0610448537903" departLane="free"/>
  <flow id="JF108135" begin="60" fromJunction="J3" toJunction="J5" end="120" vehsPerHour="196.8402642229018" departLane="free"/>
  <flow id="JF108136" begin="60" fromJunction="J0" toJunction="J7" end="120" vehsPerHour="132.97075997522398" departLane="free"/>
  <flow id="JF108137" begin="60" fromJunction="J0" toJunction="J4" end="120" vehsPerHour="0.18912699976126632" departLane="free"/>
  <flow id="JF108138" begin="60" fromJunction="J0" toJunction="J6" end="120" vehsPerHour="369.2294347673129" departLane="free"/>
  <flow id="JF108139" begin="60" fromJunction="J0" toJunction="J5" end="120" vehsPerHour="439.0059237765676" departLane="free"/>
  <flow id="JF108140" begin="60" fromJunction="J7" toJunction="J4" end="120" vehsPerHour="4.671393329658763" departLane="free"/>
  <flow id="JF108141" begin="60" fromJunction="J7" toJunction="J6" end="120" vehsPerHour="22.71842376426115" departLane="free"/>
  <flow id="JF108142" begin="60" fromJunction="J7" toJunction="J5" end="120" vehsPerHour="21.976496506354938" departLane="free"/>
  <flow id="JF108143" begin="60" fromJunction="J4" toJunction="J7" end="120" vehsPerHour="35.38723555309974" departLane="free"/>
  <flow id="JF108144" begin="60" fromJunction="J4" toJunction="J6" end="120" vehsPerHour="55.15039812407071" departLane="free"/>
  <flow id="JF108145" begin="60" fromJunction="J4" toJunction="J5" end="120" vehsPerHour="3.096273443000422" departLane="free"/>
  <flow id="JF108146" begin="60" fromJunction="J6" toJunction="J7" end="120" vehsPerHour="23.84530021538193" departLane="free"/>
  <flow id="JF108147" begin="60" fromJunction="J6" toJunction="J4" end="120" vehsPerHour="24.56978107158036" departLane="free"/>
  <flow id="JF108148" begin="60" fromJunction="J6" toJunction="J5" end="120" vehsPerHour="23.721423268319796" departLane="free"/>
  <flow id="JF108149" begin="60" fromJunction="J5" toJunction="J7" end="120" vehsPerHour="59.14240361157082" departLane="free"/>
  <flow id="JF108150" begin="60" fromJunction="J5" toJunction="J4" end="120" vehsPerHour="20.727688583806493" departLane="free"/>
  <flow id="JF108151" begin="60" fromJunction="J5" toJunction="J6" end="120" vehsPerHour="27.449552923559793" departLane="free"/>
  <flow id="JF108152" begin="60" fromJunction="J7" toJunction="J3" end="120" vehsPerHour="126.04851093136895" departLane="free"/>
  <flow id="JF108153" begin="60" fromJunction="J7" toJunction="J0" end="120" vehsPerHour="1.539731377491714" departLane="free"/>
  <flow id="JF108154" begin="60" fromJunction="J4" toJunction="J3" end="120" vehsPerHour="94.94059922010358" departLane="free"/>
  <flow id="JF108155" begin="60" fromJunction="J4" toJunction="J0" end="120" vehsPerHour="104.4241119691017" departLane="free"/>
  <flow id="JF108156" begin="60" fromJunction="J6" toJunction="J3" end="120" vehsPerHour="65.36406085026982" departLane="free"/>
  <flow id="JF108157" begin="60" fromJunction="J6" toJunction="J0" end="120" vehsPerHour="57.73350612182502" departLane="free"/>
  <flow id="JF108158" begin="60" fromJunction="J5" toJunction="J3" end="120" vehsPerHour="5.442618356081875" departLane="free"/>
  <flow id="JF108159" begin="60" fromJunction="J5" toJunction="J0" end="120" vehsPerHour="46.45242575790918" departLane="free"/>
  <flow id="JF108160" begin="120" fromJunction="J3" toJunction="J0" end="180" vehsPerHour="16.286217640314145" departLane="free"/>
  <flow id="JF108161" begin="120" fromJunction="J0" toJunction="J3" end="180" vehsPerHour="20.825580403142016" departLane="free"/>
  <flow id="JF108162" begin="120" fromJunction="J3" toJunction="J7" end="180" vehsPerHour="394.8298535186139" departLane="free"/>
  <flow id="JF108163" begin="120" fromJunction="J3" toJunction="J4" end="180" vehsPerHour="232.74347480243327" departLane="free"/>
  <flow id="JF108164" begin="120" fromJunction="J3" toJunction="J6" end="180" vehsPerHour="464.75460622506023" departLane="free"/>
  <flow id="JF108165" begin="120" fromJunction="J3" toJunction="J5" end="180" vehsPerHour="348.7339252467528" departLane="free"/>
  <flow id="JF108166" begin="120" fromJunction="J0" toJunction="J7" end="180" vehsPerHour="300.16152407827974" departLane="free"/>
  <flow id="JF108167" begin="120" fromJunction="J0" toJunction="J4" end="180" vehsPerHour="213.83294153827453" departLane="free"/>
  <flow id="JF108168" begin="120" fromJunction="J0" toJunction="J6" end="180" vehsPerHour="370.1995301155734" departLane="free"/>
  <flow id="JF108169" begin="120" fromJunction="J0" toJunction="J5" end="180" vehsPerHour="530.6538304679532" departLane="free"/>
  <flow id="JF108170" begin="120" fromJunction="J7" toJunction="J4" end="180" vehsPerHour="17.539517639813244" departLane="free"/>
  <flow id="JF108171" begin="120" fromJunction="J7" toJunction="J6" end="180" vehsPerHour="3.5558072212915213" departLane="free"/>
  <flow id="JF108172" begin="120" fromJunction="J7" toJunction="J5" end="180" vehsPerHour="20.552090091924466" departLane="free"/>
  <flow id="JF108173" begin="120" fromJunction="J4" toJunction="J7" end="180" vehsPerHour="50.83351737574575" departLane="free"/>
  <flow id="JF108174" begin="120" fromJunction="J4" toJunction="J6" end="180" vehsPerHour="37.89963609497419" departLane="free"/>
  <flow id="JF108175" begin="120" fromJunction="J4" toJunction="J5" end="180" vehsPerHour="37.5079191754054" departLane="free"/>
  <flow id="JF108176" begin="120" fromJunction="J6" toJunction="J7" end="180" vehsPerHour="46.57586044903173" departLane="free"/>
  <flow id="JF108177" begin="120" fromJunction="J6" toJunction="J4" end="180" vehsPerHour="30.11931190827785" departLane="free"/>
  <flow id="JF108178" begin="120" fromJunction="J6" toJunction="J5" end="180" vehsPerHour="2.784106447980373" departLane="free"/>
  <flow id="JF108179" begin="120" fromJunction="J5" toJunction="J7" end="180" vehsPerHour="20.467846493435108" departLane="free"/>
  <flow id="JF108180" begin="120" fromJunction="J5" toJunction="J4" end="180" vehsPerHour="27.742758041572333" departLane="free"/>
  <flow id="JF108181" begin="120" fromJunction="J5" toJunction="J6" end="180" vehsPerHour="34.587770897195185" departLane="free"/>
  <flow id="JF108182" begin="120" fromJunction="J7" toJunction="J3" end="180" vehsPerHour="36.66708778311592" departLane="free"/>
  <flow id="JF108183" begin="120" fromJunction="J7" toJunction="J0" end="180" vehsPerHour="118.58402308383212" departLane="free"/>
  <flow id="JF108184" begin="120" fromJunction="J4" toJunction="J3" end="180" vehsPerHour="26.881343547788454" departLane="free"/>
  <flow id="JF108185" begin="120" fromJunction="J4" toJunction="J0" end="180" vehsPerHour="63.03378393215165" departLane="free"/>
  <flow id="JF108186" begin="120" fromJunction="J6" toJunction="J3" end="180" vehsPerHour="62.0401566919028" departLane="free"/>
  <flow id="JF108187" begin="120" fromJunction="J6" toJunction="J0" end="180" vehsPerHour="41.5644239084931" departLane="free"/>
  <flow id="JF108188" begin="120" fromJunction="J5" toJunction="J3" end="180" vehsPerHour="96.06683681990033" departLane="free"/>
  <flow id="JF108189" begin="120" fromJunction="J5" toJunction="J0" end="180" vehsPerHour="114.90817925834807" departLane="free"/>
  <flow id="JF108190" begin="180" fromJunction="J3" toJunction="J0" end="240" vehsPerHour="23.259309722752672" departLane="free"/>
  <flow id="JF108191" begin="180" fromJunction="J0" toJunction="J3" end="240" vehsPerHour="132.4578305088391" departLane="free"/>
  <flow id="JF108192" begin="180" fromJunction="J3" toJunction="J7" end="240" vehsPerHour="506.0019349676419" departLane="free"/>
  <flow id="JF108193" begin="180" fromJunction="J3" toJunction="J4" end="240" vehsPerHour="164.8987721517563" departLane="free"/>
  <flow id="JF108194" begin="180" fromJunction="J3" toJunction="J6" end="240" vehsPerHour="47.57374119444271" departLane="free"/>
  <flow id="JF108195" begin="180" fromJunction="J3" toJunction="J5" end="240" vehsPerHour="245.20106731816938" departLane="free"/>
  <flow id="JF108196" begin="180" fromJunction="J0" toJunction="J7" end="240" vehsPerHour="366.5682420594559" departLane="free"/>
  <flow id="JF108197" begin="180" fromJunction="J0" toJunction="J4" end="240" vehsPerHour="337.37014036601454" departLane="free"/>
  <flow id="JF108198" begin="180" fromJunction="J0" toJunction="J6" end="240" vehsPerHour="77.60090139331784" departLane="free"/>
  <flow id="JF108199" begin="180" fromJunction="J0" toJunction="J5" end="240" vehsPerHour="480.7508456457137" departLane="free"/>
  <flow id="JF108200" begin="180" fromJunction="J7" toJunction="J4" end="240" vehsPerHour="31.880419006901196" departLane="free"/>
  <flow id="JF108201" begin="180" fromJunction="J7" toJunction="J6" end="240" vehsPerHour="0.28271479576119296" departLane="free"/>
  <flow id="JF108202" begin="180" fromJunction="J7" toJunction="J5" end="240" vehsPerHour="11.074392196564132" departLane="free"/>
  <flow id="JF108203" begin="180" fromJunction="J4" toJunction="J7" end="240" vehsPerHour="30.78405532347237" departLane="free"/>
  <flow id="JF108204" begin="180" fromJunction="J4" toJunction="J6" end="240" vehsPerHour="32.8839941912099" departLane="free"/>
  <flow id="JF108205" begin="180" fromJunction="J4" toJunction="J5" end="240" vehsPerHour="22.713647553649558" departLane="free"/>
  <flow id="JF108206" begin="180" fromJunction="J6" toJunction="J7" end="240" vehsPerHour="36.66665919157404" departLane="free"/>
  <flow id="JF108207" begin="180" fromJunction="J6" toJunction="J4" end="240" vehsPerHour="20.64100971603916" departLane="free"/>
  <flow id="JF108208" begin="180" fromJunction="J6" toJunction="J5" end="240" vehsPerHour="21.89827097003366" departLane="free"/>
  <flow id="JF108209" begin="180" fromJunction="J5" toJunction="J7" end="240" vehsPerHour="30.649413972194452" departLane="free"/>
  <flow id="JF108210" begin="180" fromJunction="J5" toJunction="J4" end="240" vehsPerHour="34.210732890645524" departLane="free"/>
  <flow id="JF108211" begin="180" fromJunction="J5" toJunction="J6" end="240" vehsPerHour="9.08937785924828" departLane="free"/>
  <flow id="JF108212" begin="180" fromJunction="J7" toJunction="J3" end="240" vehsPerHour="126.89269827124191" departLane="free"/>
  <flow id="JF108213" begin="180" fromJunction="J7" toJunction="J0" end="240" vehsPerHour="81.33066751591623" departLane="free"/>
  <flow id="JF108214" begin="180" fromJunction="J4" toJunction="J3" end="240" vehsPerHour="60.59874247887027" departLane="free"/>
  <flow id="JF108215" begin="180" fromJunction="J4" toJunction="J0" end="240" vehsPerHour="115.71278622080708" departLane="free"/>
  <flow id="JF108216" begin="180" fromJunction="J6" toJunction="J3" end="240" vehsPerHour="126.2590083964957" departLane="free"/>
  <flow id="JF108217" begin="180" fromJunction="J6" toJunction="J0" end="240" vehsPerHour="135.72500834530004" departLane="free"/>
  <flow id="JF108218" begin="180" fromJunction="J5" toJunction="J3" end="240" vehsPerHour="131.62435920771554" departLane="free"/>
  <flow id="JF108219" begin="180" fromJunction="J5" toJunction="J0" end="240" vehsPerHour="9.515374093274572" departLane="free"/>
  <flow id="JF108220" begin="240" fromJunction="J3" toJunction="J0" end="300" vehsPerHour="12.925095573703114" departLane="free"/>
  <flow id="JF108221" begin="240" fromJunction="J0" toJunction="J3" end="300" vehsPerHour="103.04514745181754" departLane="free"/>
  <flow id="JF108222" begin="240" fromJunction="J3" toJunction="J7" end="300" vehsPerHour="8.927540557064136" departLane="free"/>
  <flow id="JF108223" begin="240" fromJunction="J3" toJunction="J4" end="300" vehsPerHour="335.57873783470137" departLane="free"/>
  <flow id="JF108224" begin="240" fromJunction="J3" toJunction="J6" end="300" vehsPerHour="22.944511522698626" departLane="free"/>
  <flow id="JF108225" begin="240" fromJunction="J3" toJunction="J5" end="300" vehsPerHour="371.5476090218888" departLane="free"/>
  <flow id="JF108226" begin="240" fromJunction="J0" toJunction="J7" end="300" vehsPerHour="72.0574310721324" departLane="free"/>
  <flow id="JF108227" begin="240" fromJunction="J0" toJunction="J4" end="300" vehsPerHour="336.9703360583779" departLane="free"/>
  <flow id="JF108228" begin="240" fromJunction="J0" toJunction="J6" end="300" vehsPerHour="125.75766212569206" departLane="free"/>
  <flow id="JF108229" begin="240" fromJunction="J0" toJunction="J5" end="300" vehsPerHour="466.90640385768705" departLane="free"/>
  <flow id="JF108230" begin="300" fromJunction="J3" toJunction="J0" end="360" vehsPerHour="8.517012778054957" departLane="free"/>
  <flow id="JF108231" begin="300" fromJunction="J0" toJunction="J3" end="360" vehsPerHour="86.01874839448999" departLane="free"/>
  <flow id="JF108232" begin="300" fromJunction="J3" toJunction="J7" end="360" vehsPerHour="83.45565415851448" departLane="free"/>
  <flow id="JF108233" begin="300" fromJunction="J3" toJunction="J4" end="360" vehsPerHour="100.46797606384463" departLane="free"/>
  <flow id="JF108234" begin="300" fromJunction="J3" toJunction="J6" end="360" vehsPerHour="330.46142891813327" departLane="free"/>
  <flow id="JF108235" begin="300" fromJunction="J3" toJunction="J5" end="360" vehsPerHour="253.0404807921827" departLane="free"/>
  <flow id="JF108236" begin="300" fromJunction="J0" toJunction="J7" end="360" vehsPerHour="117.28519674236205" departLane="free"/>
  <flow id="JF108237" begin="300" fromJunction="J0" toJunction="J4" end="360" vehsPerHour="317.7124447081173" departLane="free"/>
  <flow id="JF108238" begin="300" fromJunction="J0" toJunction="J6" end="360" vehsPerHour="142.7958760163577" departLane="free"/>
  <flow id="JF108239" begin="300" fromJunction="J0" toJunction="J5" end="360" vehsPerHour="319.06330360468576" departLane="free"/>
  <flow id="JF108240" begin="300" fromJunction="J7" toJunction="J4" end="360" vehsPerHour="9.625693207153352" departLane="free"/>
  <flow id="JF108241" begin="300" fromJunction="J7" toJunction="J6" end="360" vehsPerHour="19.45051140050324" departLane="free"/>
  <flow id="JF108242" begin="300" fromJunction="J7" toJunction="J5" end="360" vehsPerHour="9.002314993925683" departLane="free"/>
  <flow id="JF108243" begin="300" fromJunction="J4" toJunction="J7" end="360" vehsPerHour="44.09568283954981" departLane="free"/>
  <flow id="JF108244" begin="300" fromJunction="J4" toJunction="J6" end="360" vehsPerHour="65.80841698839092" departLane="free"/>
  <flow id="JF108245" begin="300" fromJunction="J4" toJunction="J5" end="360" vehsPerHour="49.588265664387606" departLane="free"/>
  <flow id="JF108246" begin="300" fromJunction="J6" toJunction="J7" end="360" vehsPerHour="59.790625245223865" departLane="free"/>
  <flow id="JF108247" begin="300" fromJunction="J6" toJunction="J4" end="360" vehsPerHour="10.605869121683593" departLane="free"/>
  <flow id="JF108248" begin="300" fromJunction="J6" toJunction="J5" end="360" vehsPerHour="6.179011203258998" departLane="free"/>
  <flow id="JF108249" begin="300" fromJunction="J5" toJunction="J7" end="360" vehsPerHour="42.9800433444274" departLane="free"/>
  <flow id="JF108250" begin="300" fromJunction="J5" toJunction="J4" end="360" vehsPerHour="23.219378914508873" departLane="free"/>
  <flow id="JF108251" begin="300" fromJunction="J5" toJunction="J6" end="360" vehsPerHour="41.17215071752893" departLane="free"/>
  <flow id="JF108252" begin="300" fromJunction="J7" toJunction="J3" end="360" vehsPerHour="104.87692409757607" departLane="free"/>
  <flow id="JF108253" begin="300" fromJunction="J7" toJunction="J0" end="360" vehsPerHour="118.55605116838257" departLane="free"/>
  <flow id="JF108254" begin="300" fromJunction="J4" toJunction="J3" end="360" vehsPerHour="104.74824945692181" departLane="free"/>
  <flow id="JF108255" begin="300" fromJunction="J4" toJunction="J0" end="360" vehsPerHour="68.17711861855702" departLane="free"/>
  <flow id="JF108256" begin="300" fromJunction="J6" toJunction="J3" end="360" vehsPerHour="53.76424396088142" departLane="free"/>
  <flow id="JF108257" begin="300" fromJunction="J6" toJunction="J0" end="360" vehsPerHour="36.01679510723531" departLane="free"/>
  <flow id="JF108258" begin="300" fromJunction="J5" toJunction="J3" end="360" vehsPerHour="45.045737827754" departLane="free"/>
  <flow id="JF108259" begin="300" fromJunction="J5" toJunction="J0" end="360" vehsPerHour="71.55621366171482" departLane="free"/>
  <flow id="JF108260" begin="360" fromJunction="J3" toJunction="J0" end="420" vehsPerHour="40.863374756487445" departLane="free"/>
  <flow id="JF108261" begin="360" fromJunction="J0" toJunction="J3" end="420" vehsPerHour="88.85438238632872" departLane="free"/>
  <flow id="JF108262" begin="360" fromJunction="J3" toJunction="J7" end="420" vehsPerHour="171.6019812549361" departLane="free"/>
  <flow id="JF108263" begin="360" fromJunction="J3" toJunction="J4" end="420" vehsPerHour="144.0075364813068" departLane="free"/>
  <flow id="JF108264" begin="360" fromJunction="J3" toJunction="J6" end="420" vehsPerHour="502.7348757580087" departLane="free"/>
  <flow id="JF108265" begin="360" fromJunction="J3" toJunction="J5" end="420" vehsPerHour="161.1873335015251" departLane="free"/>
  <flow id="JF108266" begin="360" fromJunction="J0" toJunction="J7" end="420" vehsPerHour="81.07510507600335" departLane="free"/>
  <flow id="JF108267" begin="360" fromJunction="J0" toJunction="J4" end="420" vehsPerHour="53.82857857581359" departLane="free"/>
  <flow id="JF108268" begin="360" fromJunction="J0" toJunction="J6" end="420" vehsPerHour="367.78878818287524" departLane="free"/>
  <flow id="JF108269" begin="360" fromJunction="J0" toJunction="J5" end="420" vehsPerHour="72.92015007178748" departLane="free"/>
  <flow id="JF108270" begin="420" fromJunction="J3" toJunction="J0" end="480" vehsPerHour="16.91067651930007" departLane="free"/>
  <flow id="JF108271" begin="420" fromJunction="J0" toJunction="J3" end="480" vehsPerHour="20.02648218436072" departLane="free"/>
  <flow id="JF108272" begin="420" fromJunction="J3" toJunction="J7" end="480" vehsPerHour="227.82896473835115" departLane="free"/>
  <flow id="JF108273" begin="420" fromJunction="J3" toJunction="J4" end="480" vehsPerHour="43.35141891966357" departLane="free"/>
  <flow id="JF108274" begin="420" fromJunction="J3" toJunction="J6" end="480" vehsPerHour="254.49339109341346" departLane="free"/>
  <flow id="JF108275" begin="420" fromJunction="J3" toJunction="J5" end="480" vehsPerHour="515.6545689077305" departLane="free"/>
  <flow id="JF108276" begin="420" fromJunction="J0" toJunction="J7" end="480" vehsPerHour="413.1377696680447" departLane="free"/>
  <flow id="JF108277" begin="420" fromJunction="J0" toJunction="J4" end="480" vehsPerHour="337.3847616711561" departLane="free"/>
  <flow id="JF108278" begin="420" fromJunction="J0" toJunction="J6" end="480" vehsPerHour="58.175806752684366" departLane="free"/>
  <flow id="JF108279" begin="420" fromJunction="J0" toJunction="J5" end="480" vehsPerHour="361.41147304740207" departLane="free"/>
  <flow id="JF108280" begin="420" fromJunction="J7" toJunction="J4" end="480" vehsPerHour="14.48084365197001" departLane="free"/>
  <flow id="JF108281" begin="420" fromJunction="J7" toJunction="J6" end="480" vehsPerHour="18.438649733870296" departLane="free"/>
  <flow id="JF108282" begin="420" fromJunction="J7" toJunction="J5" end="480" vehsPerHour="9.02740178192161" departLane="free"/>
  <flow id="JF108283" begin="420" fromJunction="J4" toJunction="J7" end="480" vehsPerHour="18.07713555693339" departLane="free"/>
  <flow id="JF108284" begin="420" fromJunction="J4" toJunction="J6" end="480" vehsPerHour="18.24216605693136" departLane="free"/>
  <flow id="JF108285" begin="420" fromJunction="J4" toJunction="J5" end="480" vehsPerHour="7.208165017167782" departLane="free"/>
  <flow id="JF108286" begin="420" fromJunction="J6" toJunction="J7" end="480" vehsPerHour="59.5730001600984" departLane="free"/>
  <flow id="JF108287" begin="420" fromJunction="J6" toJunction="J4" end="480" vehsPerHour="19.350512935284705" departLane="free"/>
  <flow id="JF108288" begin="420" fromJunction="J6" toJunction="J5" end="480" vehsPerHour="5.5364292047596235" departLane="free"/>
  <flow id="JF108289" begin="420" fromJunction="J5" toJunction="J7" end="480" vehsPerHour="19.93213345208588" departLane="free"/>
  <flow id="JF108290" begin="420" fromJunction="J5" toJunction="J4" end="480" vehsPerHour="27.17831833179965" departLane="free"/>
  <flow id="JF108291" begin="420" fromJunction="J5" toJunction="J6" end="480" vehsPerHour="66.24215316444689" departLane="free"/>
  <flow id="JF108292" begin="420" fromJunction="J7" toJunction="J3" end="480" vehsPerHour="22.94942559813065" departLane="free"/>
  <flow id="JF108293" begin="420" fromJunction="J7" toJunction="J0" end="480" vehsPerHour="98.66417764830223" departLane="free"/>
  <flow id="JF108294" begin="420" fromJunction="J4" toJunction="J3" end="480" vehsPerHour="64.96422762936437" departLane="free"/>
  <flow id="JF108295" begin="420" fromJunction="J4" toJunction="J0" end="480" vehsPerHour="63.74642602720009" departLane="free"/>
  <flow id="JF108296" begin="420" fromJunction="J6" toJunction="J3" end="480" vehsPerHour="71.78415483920469" departLane="free"/>
  <flow id="JF108297" begin="420" fromJunction="J6" toJunction="J0" end="480" vehsPerHour="86.96565107835816" departLane="free"/>
  <flow id="JF108298" begin="420" fromJunction="J5" toJunction="J3" end="480" vehsPerHour="36.4214140939362" departLane="free"/>
  <flow id="JF108299" begin="420" fromJunction="J5" toJunction="J0" end="480" vehsPerHour="55.600452421038106" departLane="free"/>
  <flow id="JF108300" begin="480" fromJunction="J3" toJunction="J0" end="540" vehsPerHour="30.564607990311575" departLane="free"/>
  <flow id="JF108301" begin="480" fromJunction="J0" toJunction="J3" end="540" vehsPerHour="71.90082657734821" departLane="free"/>
  <flow id="JF108302" begin="480" fromJunction="J3" toJunction="J7" end="540" vehsPerHour="279.33241838347794" departLane="free"/>
  <flow id="JF108303" begin="480" fromJunction="J3" toJunction="J4" end="540" vehsPerHour="208.10138793737195" departLane="free"/>
  <flow id="JF108304" begin="480" fromJunction="J3" toJunction="J6" end="540" vehsPerHour="342.5658232111302" departLane="free"/>
  <flow id="JF108305" begin="480" fromJunction="J3" toJunction="J5" end="540" vehsPerHour="387.37336096119844" departLane="free"/>
  <flow id="JF108306" begin="480" fromJunction="J0" toJunction="J7" end="540" vehsPerHour="541.1514854394594" departLane="free"/>
  <flow id="JF108307" begin="480" fromJunction="J0" toJunction="J4" end="540" vehsPerHour="247.45939014496716" departLane="free"/>
  <flow id="JF108308" begin="480" fromJunction="J0" toJunction="J6" end="540" vehsPerHour="178.69132495346847" departLane="free"/>
  <flow id="JF108309" begin="480" fromJunction="J0" toJunction="J5" end="540" vehsPerHour="165.80549617398952" departLane="free"/>
  <flow id="JF108310" begin="480" fromJunction="J7" toJunction="J4" end="540" vehsPerHour="3.1736437785472162" departLane="free"/>
  <flow id="JF108311" begin="480" fromJunction="J7" toJunction="J6" end="540" vehsPerHour="19.016264426669913" departLane="free"/>
  <flow id="JF108312" begin="480" fromJunction="J7" toJunction="J5" end="540" vehsPerHour="3.6012899958422757" departLane="free"/>
  <flow id="JF108313" begin="480" fromJunction="J4" toJunction="J7" end="540" vehsPerHour="53.29877376584014" departLane="free"/>
  <flow id="JF108314" begin="480" fromJunction="J4" toJunction="J6" end="540" vehsPerHour="36.40056824883764" departLane="free"/>
  <flow id="JF108315" begin="480" fromJunction="J4" toJunction="J5" end="540" vehsPerHour="26.638368363094095" departLane="free"/>
  <flow id="JF108316" begin="480" fromJunction="J6" toJunction="J7" end="540" vehsPerHour="16.207993520445658" departLane="free"/>
  <flow id="JF108317" begin="480" fromJunction="J6" toJunction="J4" end="540" vehsPerHour="22.28414066084816" departLane="free"/>
  <flow id="JF108318" begin="480" fromJunction="J6" toJunction="J5" end="540" vehsPerHour="4.7536398850188375" departLane="free"/>
  <flow id="JF108319" begin="480" fromJunction="J5" toJunction="J7" end="540" vehsPerHour="35.1993023354093" departLane="free"/>
  <flow id="JF108320" begin="480" fromJunction="J5" toJunction="J4" end="540" vehsPerHour="18.520139916884588" departLane="free"/>
  <flow id="JF108321" begin="480" fromJunction="J5" toJunction="J6" end="540" vehsPerHour="33.45328934127113" departLane="free"/>
  <flow id="JF108322" begin="480" fromJunction="J7" toJunction="J3" end="540" vehsPerHour="58.74667095211654" departLane="free"/>
  <flow id="JF108323" begin="480" fromJunction="J7" toJunction="J0" end="540" vehsPerHour="105.0404428361931" departLane="free"/>
  <flow id="JF108324" begin="480" fromJunction="J4" toJunction="J3" end="540" vehsPerHour="93.43342626127775" departLane="free"/>
  <flow id="JF108325" begin="480" fromJunction="J4" toJunction="J0" end="540" vehsPerHour="31.551297288226877" departLane="free"/>
  <flow id="JF108326" begin="480" fromJunction="J6" toJunction="J3" end="540" vehsPerHour="107.46969814490042" departLane="free"/>
  <flow id="JF108327" begin="480" fromJunction="J6" toJunction="J0" end="540" vehsPerHour="106.35755021864252" departLane="free"/>
  <flow id="JF108328" begin="480" fromJunction="J5" toJunction="J3" end="540" vehsPerHour="91.46733673311638" departLane="free"/>