<?xml version="1.0" encoding="UTF-8"?>
<routes xmlns:xsi="http://www.w3.org/2001/XMLSchema-instance" xsi:noNamespaceSchemaLocation="http://sumo.dlr.de/xsd/routes_file.xsd">
  <flow id="JF104100" begin="0" fromJunction="J3" toJunction="J0" end="60" vehsPerHour="21.289319324513787" departLane="free"/>
  <flow id="JF104101" begin="0" fromJunction="J0" toJunction="J3" end="60" vehsPerHour="7.843765872385442" departLane="free"/>
  <flow id="JF104102" begin="0" fromJunction="J3" toJunction="J7" end="60" vehsPerHour="318.5269112420614" departLane="free"/>
  <flow id="JF104103" begin="0" fromJunction="J3" toJunction="J4" end="60" vehsPerHour="352.57442340381334" departLane="free"/>
  <flow id="JF104104" begin="0" fromJunction="J3" toJunction="J6" end="60" vehsPerHour="402.9169331212522" departLane="free"/>
  <flow id="JF104105" begin="0" fromJunction="J3" toJunction="J5" end="60" vehsPerHour="327.89467708949644" departLane="free"/>
  <flow id="JF104106" begin="0" fromJunction="J0" toJunction="J7" end="60" vehsPerHour="42.6988941578709" departLane="free"/>
  <flow id="JF104107" begin="0" fromJunction="J0" toJunction="J4" end="60" vehsPerHour="473.592105997905" departLane="free"/>
  <flow id="JF104108" begin="0" fromJunction="J0" toJunction="J6" end="60" vehsPerHour="76.98675472207822" departLane="free"/>
  <flow id="JF104109" begin="0" fromJunction="J0" toJunction="J5" end="60" vehsPerHour="88.99794634953176" departLane="free"/>
  <flow id="JF104110" begin="60" fromJunction="J3" toJunction="J0" end="120" vehsPerHour="16.841046718432736" departLane="free"/>
  <flow id="JF104111" begin="60" fromJunction="J0" toJunction="J3" end="120" vehsPerHour="118.42120888072697" departLane="free"/>
  <flow id="JF104112" begin="60" fromJunction="J3" toJunction="J7" end="120" vehsPerHour="126.78342029376583" departLane="free"/>
  <flow id="JF104113" begin="60" fromJunction="J3" toJunction="J4" end="120" vehsPerHour="310.974943215775" departLane="free"/>
  <flow id="JF104114" begin="60" fromJunction="J3" toJunction="J6" end="120" vehsPerHour="185.13751107312143" departLane="free"/>
  <flow id="JF104115" begin="60" fromJunction="J3" toJunction="J5" end="120" vehsPerHour="78.5839456409071" departLane="free"/>
  <flow id="JF104116" begin="60" fromJunction="J0" toJunction="J7" end="120" vehsPerHour="25.92941268272548" departLane="free"/>
  <flow id="JF104117" begin="60" fromJunction="J0" toJunction="J4" end="120" vehsPerHour="447.7017875134039" departLane="free"/>
  <flow id="JF104118" begin="60" fromJunction="J0" toJunction="J6" end="120" vehsPerHour="233.36003278260938" departLane="free"/>
  <flow id="JF104119" begin="60" fromJunction="J0" toJunction="J5" end="120" vehsPerHour="230.0623267525076" departLane="free"/>
  <flow id="JF104120" begin="60" fromJunction="J7" toJunction="J4" end="120" vehsPerHour="7.399515488368129" departLane="free"/>
  <flow id="JF104121" begin="60" fromJunction="J7" toJunction="J6" end="120" vehsPerHour="12.46744500794065" departLane="free"/>
  <flow id="JF104122" begin="60" fromJunction="J7" toJunction="J5" end="120" vehsPerHour="0.9157559535693534" departLane="free"/>
  <flow id="JF104123" begin="60" fromJunction="J4" toJunction="J7" end="120" vehsPerHour="45.48905065596581" departLane="free"/>
  <flow id="JF104124" begin="60" fromJunction="J4" toJunction="J6" end="120" vehsPerHour="49.414705621236386" departLane="free"/>
  <flow id="JF104125" begin="60" fromJunction="J4" toJunction="J5" end="120" vehsPerHour="46.482087193173165" departLane="free"/>
  <flow id="JF104126" begin="60" fromJunction="J6" toJunction="J7" end="120" vehsPerHour="29.324116233266267" departLane="free"/>
  <flow id="JF104127" begin="60" fromJunction="J6" toJunction="J4" end="120" vehsPerHour="28.22636316122751" departLane="free"/>
  <flow id="JF104128" begin="60" fromJunction="J6" toJunction="J5" end="120" vehsPerHour="15.765403068661248" departLane="free"/>
  <flow id="JF104129" begin="60" fromJunction="J5" toJunction="J7" end="120" vehsPerHour="23.564696292156874" departLane="free"/>
  <flow id="JF104130" begin="60" fromJunction="J5" toJunction="J4" end="120" vehsPerHour="33.622026857788335" departLane="free"/>
  <flow id="JF104131" begin="60" fromJunction="J5" toJunction="J6" end="120" vehsPerHour="29.69283363726406" departLane="free"/>
  <flow id="JF104132" begin="60" fromJunction="J7" toJunction="J3" end="120" vehsPerHour="135.90260867870177" departLane="free"/>
  <flow id="JF104133" begin="60" fromJunction="J7" toJunction="J0" end="120" vehsPerHour="60.819122555260066" departLane="free"/>
  <flow id="JF104134" begin="60" fromJunction="J4" toJunction="J3" end="120" vehsPerHour="82.67804050703141" departLane="free"/>
  <flow id="JF104135" begin="60" fromJunction="J4" toJunction="J0" end="120" vehsPerHour="93.9435896596432" departLane="free"/>
  <flow id="JF104136" begin="60" fromJunction="J6" toJunction="J3" end="120" vehsPerHour="25.004055975905413" departLane="free"/>
  <flow id="JF104137" begin="60" fromJunction="J6" toJunction="J0" end="120" vehsPerHour="72.99940535358346" departLane="free"/>
  <flow id="JF104138" begin="60" fromJunction="J5" toJunction="J3" end="120" vehsPerHour="130.89446993049697" departLane="free"/>
  <flow id="JF104139" begin="60" fromJunction="J5" toJunction="J0" end="120" vehsPerHour="122.69983717622104" departLane="free"/>
  <flow id="JF104140" begin="120" fromJunction="J3" toJunction="J0" end="180" vehsPerHour="47.80096256154729" departLane="free"/>
  <flow id="JF104141" begin="120" fromJunction="J0" toJunction="J3" end="180" vehsPerHour="57.62109298826638" departLane="free"/>
  <flow id="JF104142" begin="120" fromJunction="J3" toJunction="J7" end="180" vehsPerHour="318.36285140176454" departLane="free"/>
  <flow id="JF104143" begin="120" fromJunction="J3" toJunction="J4" end="180" vehsPerHour="393.9650836125654" departLane="free"/>
  <flow id="JF104144" begin="120" fromJunction="J3" toJunction="J6" end="180" vehsPerHour="262.03699125591675" departLane="free"/>
  <flow id="JF104145" begin="120" fromJunction="J3" toJunction="J5" end="180" vehsPerHour="49.96502416696058" departLane="free"/>
  <flow id="JF104146" begin="120" fromJunction="J0" toJunction="J7" end="180" vehsPerHour="34.63460705206723" departLane="free"/>
  <flow id="JF104147" begin="120" fromJunction="J0" toJunction="J4" end="180" vehsPerHour="428.38911440721773" departLane="free"/>
  <flow id="JF104148" begin="120" fromJunction="J0" toJunction="J6" end="180" vehsPerHour="531.0746944886326" departLane="free"/>
  <flow id="JF104149" begin="120" fromJunction="J0" toJunction="J5" end="180" vehsPerHour="493.66140515251976" departLane="free"/>
  <flow id="JF104150" begin="180" fromJunction="J3" toJunction="J0" end="240" vehsPerHour="64.89939811333932" departLane="free"/>
  <flow id="JF104151" begin="180" fromJunction="J0" toJunction="J3" end="240" vehsPerHour="46.128458483810654" departLane="free"/>
  <flow id="JF104152" begin="180" fromJunction="J3" toJunction="J7" end="240" vehsPerHour="123.59943172627297" departLane="free"/>
  <flow id="JF104153" begin="180" fromJunction="J3" toJunction="J4" end="240" vehsPerHour="43.026484729577376" departLane="free"/>
  <flow id="JF104154" begin="180" fromJunction="J3" toJunction="J6" end="240" vehsPerHour="177.9892873120964" departLane="free"/>
  <flow id="JF104155" begin="180" fromJunction="J3" toJunction="J5" end="240" vehsPerHour="182.32923459522794" departLane="free"/>
  <flow id="JF104156" begin="180" fromJunction="J0" toJunction="J7" end="240" vehsPerHour="484.4531284402965" departLane="free"/>
  <flow id="JF104157" begin="180" fromJunction="J0" toJunction="J4" end="240" vehsPerHour="132.83230271283216" departLane="free"/>
  <flow id="JF104158" begin="180" fromJunction="J0" toJunction="J6" end="240" vehsPerHour="111.57116181550305" departLane="free"/>
  <flow id="JF104159" begin="180" fromJunction="J0" toJunction="J5" end="240" vehsPerHour="487.2764649640842" departLane="free"/>
  <flow id="JF104160" begin="180" fromJunction="J7" toJunction="J4" end="240" vehsPerHour="29.01561431937313" departLane="free"/>
  <flow id="JF104161" begin="180" fromJunction="J7" toJunction="J6" end="240" vehsPerHour="3.6911470666299184" departLane="free"/>
  <flow id="JF104162" begin="180" fromJunction="J7" toJunction="J5" end="240" vehsPerHour="1.7131665042609987" departLane="free"/>
  <flow id="JF104163" begin="180" fromJunction="J4" toJunction="J7" end="240" vehsPerHour="46.65849110640713" departLane="free"/>
  <flow id="JF104164" begin="180" fromJunction="J4" toJunction="J6" end="240" vehsPerHour="7.2079508882203145" departLane="free"/>
  <flow id="JF104165" begin="180" fromJunction="J4" toJunction="J5" end="240" vehsPerHour="34.51163712683134" departLane="free"/>
  <flow id="JF104166" begin="180" fromJunction="J6" toJunction="J7" end="240" vehsPerHour="9.716453345011537" departLane="free"/>
  <flow id="JF104167" begin="180" fromJunction="J6" toJunction="J4" end="240" vehsPerHour="4.2068710591766" departLane="free"/>
  <flow id="JF104168" begin="180" fromJunction="J6" toJunction="J5" end="240" vehsPerHour="2.0286106255405008" departLane="free"/>
  <flow id="JF104169" begin="180" fromJunction="J5" toJunction="J7" end="240" vehsPerHour="28.742939990260986" departLane="free"/>
  <flow id="JF104170" begin="180" fromJunction="J5" toJunction="J4" end="240" vehsPerHour="13.987737158078053" departLane="free"/>
  <flow id="JF104171" begin="180" fromJunction="J5" toJunction="J6" end="240" vehsPerHour="34.1088702662629" departLane="free"/>
  <flow id="JF104172" begin="180" fromJunction="J7" toJunction="J3" end="240" vehsPerHour="118.56428447119258" departLane="free"/>
  <flow id="JF104173" begin="180" fromJunction="J7" toJunction="J0" end="240" vehsPerHour="82.90639170774129" departLane="free"/>
  <flow id="JF104174" begin="180" fromJunction="J4" toJunction="J3" end="240" vehsPerHour="64.25981040774967" departLane="free"/>
  <flow id="JF104175" begin="180" fromJunction="J4" toJunction="J0" end="240" vehsPerHour="31.458647140892012" departLane="free"/>
  <flow id="JF104176" begin="180" fromJunction="J6" toJunction="J3" end="240" vehsPerHour="107.29991755672167" departLane="free"/>
  <flow id="JF104177" begin="180" fromJunction="J6" toJunction="J0" end="240" vehsPerHour="61.814904274746546" departLane="free"/>
  <flow id="JF104178" begin="180" fromJunction="J5" toJunction="J3" end="240" vehsPerHour="103.84129253165638" departLane="free"/>
  <flow id="JF104179" begin="180" fromJunction="J5" toJunction="J0" end="240" vehsPerHour="5.864504715761895" departLane="free"/>
  <flow id="JF104180" begin="240" fromJunction="J3" toJunction="J0" end="300" vehsPerHour="30.09530043496542" departLane="free"/>
  <flow id="JF104181" begin="240" fromJunction="J0" toJunction="J3" end="300" vehsPerHour="44.73258479159701" departLane="free"/>
  <flow id="JF104182" begin="240" fromJunction="J3" toJunction="J7" end="300" vehsPerHour="10.307968383334536" departLane="free"/>
  <flow id="JF104183" begin="240" fromJunction="J3" toJunction="J4" end="300" vehsPerHour="516.2260260129418" departLane="free"/>
  <flow id="JF104184" begin="240" fromJunction="J3" toJunction="J6" end="300" vehsPerHour="161.41990579899146" departLane="free"/>
  <flow id="JF104185" begin="240" fromJunction="J3" toJunction="J5" end="300" vehsPerHour="64.51896815537334" departLane="free"/>
  <flow id="JF104186" begin="240" fromJunction="J0" toJunction="J7" end="300" vehsPerHour="400.0240547275971" departLane="free"/>
  <flow id="JF104187" begin="240" fromJunction="J0" toJunction="J4" end="300" vehsPerHour="223.5838631701664" departLane="free"/>
  <flow id="JF104188" begin="240" fromJunction="J0" toJunction="J6" end="300" vehsPerHour="247.23145665260088" departLane="free"/>
  <flow id="JF104189" begin="240" fromJunction="J0" toJunction="J5" end="300" vehsPerHour="477.0505818297601" departLane="free"/>
  <flow id="JF104190" begin="240" fromJunction="J7" toJunction="J4" end="300" vehsPerHour="11.035562499040156" departLane="free"/>
  <flow id="JF104191" begin="240" fromJunction="J7" toJunction="J6" end="300" vehsPerHour="15.36555885828197" departLane="free"/>
  <flow id="JF104192" begin="240" fromJunction="J7" toJunction="J5" end="300" vehsPerHour="25.44705723105057" departLane="free"/>
  <flow id="JF104193" begin="240" fromJunction="J4" toJunction="J7" end="300" vehsPerHour="17.59796863764889" departLane="free"/>
  <flow id="JF104194" begin="240" fromJunction="J4" toJunction="J6" end="300" vehsPerHour="7.057310172075058" departLane="free"/>
  <flow id="JF104195" begin="240" fromJunction="J4" toJunction="J5" end="300" vehsPerHour="16.242296135964637" departLane="free"/>
  <flow id="JF104196" begin="240" fromJunction="J6" toJunction="J7" end="300" vehsPerHour="13.547379735780112" departLane="free"/>
  <flow id="JF104197" begin="240" fromJunction="J6" toJunction="J4" end="300" vehsPerHour="32.502077924606574" departLane="free"/>
  <flow id="JF104198" begin="240" fromJunction="J6" toJunction="J5" end="300" vehsPerHour="15.355872341006386" departLane="free"/>
  <flow id="JF104199" begin="240" fromJunction="J5" toJunction="J7" end="300" vehsPerHour="58.78459913828044" departLane="free"/>
  <flow id="JF104200" begin="240" fromJunction="J5" toJunction="J4" end="300" vehsPerHour="15.140620925544908" departLane="free"/>
  <flow id="JF104201" begin="240" fromJunction="J5" toJunction="J6" end="300" vehsPerHour="11.18547935836823" departLane="free"/>
  <flow id="JF104202" begin="240" fromJunction="J7" toJunction="J3" end="300" vehsPerHour="75.83232552779003" departLane="free"/>
  <flow id="JF104203" begin="240" fromJunction="J7" toJunction="J0" end="300" vehsPerHour="81.88359912392423" departLane="free"/>
  <flow id="JF104204" begin="240" fromJunction="J4" toJunction="J3" end="300" vehsPerHour="70.83449089781878" departLane="free"/>
  <flow id="JF104205" begin="240" fromJunction="J4" toJunction="J0" end="300" vehsPerHour="95.00808786675655" departLane="free"/>
  <flow id="JF104206" begin="240" fromJunction="J6" toJunction="J3" end="300" vehsPerHour="130.3222638714904" departLane="free"/>
  <flow id="JF104207" begin="240" fromJunction="J6" toJunction="J0" end="300" vehsPerHour="71.66899338985158" departLane="free"/>
  <flow id="JF104208" begin="240" fromJunction="J5" toJunction="J3" end="300" vehsPerHour="80.66703467678458" departLane="free"/>
  <flow id="JF104209" begin="240" fromJunction="J5" toJunction="J0" end="300" vehsPerHour="109.54999928258958" departLane="free"/>
  <flow id="JF104210" begin="300" fromJunction="J3" toJunction="J0" end="360" vehsPerHour="30.57554690698934" departLane="free"/>
  <flow id="JF104211" begin="300" fromJunction="J0" toJunction="J3" end="360" vehsPerHour="133.46431846611134" departLane="free"/>
  <flow id="JF104212" begin="300" fromJunction="J3" toJunction="J7" end="360" vehsPerHour="508.9267758525092" departLane="free"/>
  <flow id="JF104213" begin="300" fromJunction="J3" toJunction="J4" end="360" vehsPerHour="422.6005467432894" departLane="free"/>
  <flow id="JF104214" begin="300" fromJunction="J3" toJunction="J6" end="360" vehsPerHour="337.870207380744" departLane="free"/>
  <flow id="JF104215" begin="300" fromJunction="J3" toJunction="J5" end="360" vehsPerHour="55.302743338203456" departLane="free"/>
  <flow id="JF104216" begin="300" fromJunction="J0" toJunction="J7" end="360" vehsPerHour="546.9401257877847" departLane="free"/>
  <flow id="JF104217" begin="300" fromJunction="J0" toJunction="J4" end="360" vehsPerHour="203.9949385397894" departLane="free"/>
  <flow id="JF104218" begin="300" fromJunction="J0" toJunction="J6" end="360" vehsPerHour="71.7398891096303" departLane="free"/>
  <flow id="JF104219" begin="300" fromJunction="J0" toJunction="J5" end="360" vehsPerHour="254.83337704822503" departLane="free"/>
  <flow id="JF104220" begin="360" fromJunction="J3" toJunction="J0" end="420" vehsPerHour="39.611594789517675" departLane="free"/>
  <flow id="JF104221" begin="360" fromJunction="J0" toJunction="J3" end="420" vehsPerHour="27.78851000711093" departLane="free"/>
  <flow id="JF104222" begin="360" fromJunction="J3" toJunction="J7" end="420" vehsPerHour="141.36564529611593" departLane="free"/>
  <flow id="JF104223" begin="360" fromJunction="J3" toJunction="J4" end="420" vehsPerHour="160.02212628538027" departLane="free"/>
  <flow id="JF104224" begin="360" fromJunction="J3" toJunction="J6" end="420" vehsPerHour="211.731358641831" departLane="free"/>
  <flow id="JF104225" begin="360" fromJunction="J3" toJunction="J5" end="420" vehsPerHour="75.5292135214753" departLane="free"/>
  <flow id="JF104226" begin="360" fromJunction="J0" toJunction="J7" end="420" vehsPerHour="367.8053748223961" departLane="free"/>
  <flow id="JF104227" begin="360" fromJunction="J0" toJunction="J4" end="420" vehsPerHour="138.97261058364543" departLane="free"/>
  <flow id="JF104228" begin="360" fromJunction="J0" toJunction="J6" end="420" vehsPerHour="162.94959133201527" departLane="free"/>
  <flow id="JF104229" begin="360" fromJunction="J0" toJunction="J5" end="420" vehsPerHour="181.59579315659388" departLane="free"/>
  <flow id="JF104230" begin="360" fromJunction="J7" toJunction="J4" end="420" vehsPerHour="29.450826844686066" departLane="free"/>
  <flow id="JF104231" begin="360" fromJunction="J7" toJunction="J6" end="420" vehsPerHour="18.745900736203986" departLane="free"/>
  <flow id="JF104232" begin="360" fromJunction="J7" toJunction="J5" end="420" vehsPerHour="21.044128410061305" departLane="free"/>
  <flow id="JF104233" begin="360" fromJunction="J4" toJunction="J7" end="420" vehsPerHour="6.083949264281185" departLane="free"/>
  <flow id="JF104234" begin="360" fromJunction="J4" toJunction="J6" end="420" vehsPerHour="48.87287185811803" departLane="free"/>
  <flow id="JF104235" begin="360" fromJunction="J4" toJunction="J5" end="420" vehsPerHour="7.186325496913587" departLane="free"/>
  <flow id="JF104236" begin="360" fromJunction="J6" toJunction="J7" end="420" vehsPerHour="67.4529802033975" departLane="free"/>
  <flow id="JF104237" begin="360" fromJunction="J6" toJunction="J4" end="420" vehsPerHour="20.58240877918998" departLane="free"/>
  <flow id="JF104238" begin="360" fromJunction="J6" toJunction="J5" end="420" vehsPerHour="4.992857550988025" departLane="free"/>
  <flow id="JF104239" begin="360" fromJunction="J5" toJunction="J7" end="420" vehsPerHour="60.36030671007999" departLane="free"/>
  <flow id="JF104240" begin="360" fromJunction="J5" toJunction="J4" end="420" vehsPerHour="7.600125322239577" departLane="free"/>
  <flow id="JF104241" begin="360" fromJunction="J5" toJunction="J6" end="420" vehsPerHour="53.87319086739252" departLane="free"/>
  <flow id="JF104242" begin="360" fromJunction="J7" toJunction="J3" end="420" vehsPerHour="123.35935918086447" departLane="free"/>
  <flow id="JF104243" begin="360" fromJunction="J7" toJunction="J0" end="420" vehsPerHour="75.55877709084206" departLane="free"/>
  <flow id="JF104244" begin="360" fromJunction="J4" toJunction="J3" end="420" vehsPerHour="137.1602049042326" departLane="free"/>
  <flow id="JF104245" begin="360" fromJunction="J4" toJunction="J0" end="420" vehsPerHour="88.05085678296096" departLane="free"/>
  <flow id="JF104246" begin="360" fromJunction="J6" toJunction="J3" end="420" vehsPerHour="39.99934517087637" departLane="free"/>
  <flow id="JF104247" begin="360" fromJunction="J6" toJunction="J0" end="420" vehsPerHour="43.95105344625845" departLane="free"/>
  <flow id="JF104248" begin="360" fromJunction="J5" toJunction="J3" end="420" vehsPerHour="34.96460969939891" departLane="free"/>
  <flow id="JF104249" begin="360" fromJunction="J5" toJunction="J0" end="420" vehsPerHour="44.9140651199147" departLane="free"/>
  <flow id="JF104250" begin="420" fromJunction="J3" toJunction="J0" end="480" vehsPerHour="39.3997159901252" departLane="free"/>
  <flow id="JF104251" begin="420" fromJunction="J0" toJunction="J3" end="480" vehsPerHour="95.88139863069816" departLane="free"/>
  <flow id="JF104252" begin="420" fromJunction="J3" toJunction="J7" end="480" vehsPerHour="20.39392369984586" departLane="free"/>
  <flow id="JF104253" begin="420" fromJunction="J3" toJunction="J4" end="480" vehsPerHour="33.11465105524777" departLane="free"/>
  <flow id="JF104254" begin="420" fromJunction="J3" toJunction="J6" end="480" vehsPerHour="506.75058185141353" departLane="free"/>
  <flow id="JF104255" begin="420" fromJunction="J3" toJunction="J5" end="480" vehsPerHour="185.07179733809366" departLane="free"/>
  <flow id="JF104256" begin="420" fromJunction="J0" toJunction="J7" end="480" vehsPerHour="431.3761481887539" departLane="free"/>
  <flow id="JF104257" begin="420" fromJunction="J0" toJunction="J4" end="480" vehsPerHour="309.0382278096737" departLane="free"/>
  <flow id="JF104258" begin="420" fromJunction="J0" toJunction="J6" end="480" vehsPerHour="147.7537584506577" departLane="free"/>
  <flow id="JF104259" begin="420" fromJunction="J0" toJunction="J5" end="480" vehsPerHour="408.4670527821169" departLane="free"/>
  <flow id="JF104260" begin="420" fromJunction="J7" toJunction="J4" end="480" vehsPerHour="24.73893688302479" departLane="free"/>
  <flow id="JF104261" begin="420" fromJunction="J7" toJunction="J6" end="480" vehsPerHour="26.811149606747218" departLane="free"/>
  <flow id="JF104262" begin="420" fromJunction="J7" toJunction="J5" end="480" vehsPerHour="0.5128311097214885" departLane="free"/>
  <flow id="JF104263" begin="420" fromJunction="J4" toJunction="J7" end="480" vehsPerHour="14.665360090194337" departLane="free"/>
  <flow id="JF104264" begin="420" fromJunction="J4" toJunction="J6" end="480" vehsPerHour="6.169271537053027" departLane="free"/>
  <flow id="JF104265" begin="420" fromJunction="J4" toJunction="J5" end="480" vehsPerHour="23.44974943565962" departLane="free"/>
  <flow id="JF104266" begin="420" fromJunction="J6" toJunction="J7" end="480" vehsPerHour="37.34910356342011" departLane="free"/>
  <flow id="JF104267" begin="420" fromJunction="J6" toJunction="J4" end="480" vehsPerHour="24.941501790461526" departLane="free"/>
  <flow id="JF104268" begin="420" fromJunction="J6" toJunction="J5" end="480" vehsPerHour="19.994796192433427" departLane="free"/>
  <flow id="JF104269" begin="420" fromJunction="J5" toJunction="J7" end="480" vehsPerHour="55.85587027097378" departLane="free"/>
  <flow id="JF104270" begin="420" fromJunction="J5" toJunction="J4" end="480" vehsPerHour="7.739855718130835" departLane="free"/>
  <flow id="JF104271" begin="420" fromJunction="J5" toJunction="J6" end="480" vehsPerHour="25.81359464141378" departLane="free"/>
  <flow id="JF104272" begin="420" fromJunction="J7" toJunction="J3" end="480" vehsPerHour="77.79978469717211" departLane="free"/>
  <flow id="JF104273" begin="420" fromJunction="J7" toJunction="J0" end="480" vehsPerHour="50.53092794536639" departLane="free"/>
  <flow id="JF104274" begin="420" fromJunction="J4" toJunction="J3" end="480" vehsPerHour="99.66474053734939" departLane="free"/>
  <flow id="JF104275" begin="420" fromJunction="J4" toJunction="J0" end="480" vehsPerHour="132.09515162907567" departLane="free"/>
  <flow id="JF104276" begin="420" fromJunction="J6" toJunction="J3" end="480" vehsPerHour="34.549507345619695" departLane="free"/>
  <flow id="JF104277" begin="420" fromJunction="J6" toJunction="J0" end="480" vehsPerHour="4.964300798621431" departLane="free"/>
  <flow id="JF104278" begin="420" fromJunction="J5" toJunction="J3" end="480" vehsPerHour="133.3567659133272" departLane="free"/>
  <flow id="JF104279" begin="420" fromJunction="J5" toJunction="J0" end="480" vehsPerHour="122.74520415354864" departLane="free"/>
  <flow id="JF104280" begin="480" fromJunction="J3" toJunction="J0" end="540" vehsPerHour="24.695490545025095" departLane="free"/>
  <flow id="JF104281" begin="480" fromJunction="J0" toJunction="J3" end="540" vehsPerHour="116.46578016126006" departLane="free"/>
  <flow id="JF104282" begin="480" fromJunction="J3" toJunction="J7" end="540" vehsPerHour="526.8533784608409" departLane="free"/>
  <flow id="JF104283" begin="480" fromJunction="J3" toJunction="J4" end="540" vehsPerHour="401.3691285187983" departLane="free"/>
  <flow id="JF104284" begin="480" fromJunction="J3" toJunction="J6" end="540" vehsPerHour="467.53377361755247" departLane="free"/>
  <flow id="JF104285" begin="480" fromJunction="J3" toJunction="J5" end="540" vehsPerHour="229.85542480101506" departLane="free"/>
  <flow id="JF104286" begin="480" fromJunction="J0" toJunction="J7" end="540" vehsPerHour="232.91286507053027" departLane="free"/>
  <flow id="JF104287" begin="480" fromJunction="J0" toJunction="J4" end="540" vehsPerHour="203.68318072332184" departLane="free"/>
  <flow id="JF104288" begin="480" fromJunction="J0" toJunction="J6" end="540" vehsPerHour="208.34347830943707" departLane="free"/>
  <flow id="JF104289" begin="480" fromJunction="J0" toJunction="J5" end="540" vehsPerHour="371.19167829642043" departLane="free"/>
  <flow id="JF104290" begin="480" fromJunction="J7" toJunction="J4" end="540" vehsPerHour="16.17606139108367" departLane="free"/>
  <flow id="JF104291" begin="480" fromJunction="J7" toJunction="J6" end="540" vehsPerHour="10.466398196496442" departLane="free"/>
  <flow id="JF104292" begin="480" fromJunction="J7" toJunction="J5" end="540" vehsPerHour="9.922968813741855" departLane="free"/>
  <flow id="JF104293" begin="480" fromJunction="J4" toJunction="J7" end="540" vehsPerHour="26.303228467749598" departLane="free"/>
  <flow id="JF104294" begin="480" fromJunction="J4" toJunction="J6" end="540" vehsPerHour="32.958940201104355" departLane="free"/>
  <flow id="JF104295" begin="480" fromJunction="J4" toJunction="J5" end="540" vehsPerHour="5.814154522436989" departLane="free"/>
  <flow id="JF104296" begin="480" fromJunction="J6" toJunction="J7" end="540" vehsPerHour="58.95658582718584" departLane="free"/>
  <flow id="JF104297" begin="480" fromJunction="J6" toJunction="J4" end="540" vehsPerHour="23.707208655087314" departLane="free"/>
  <flow id="JF104298" begin="480" fromJunction="J6" toJunction="J5" end="540" vehsPerHour="26.720840688453787" departLane="free"/>
  <flow id="JF104299" begin="480" fromJunction="J5" toJunction="J7" end="540" vehsPerHour="43.83300768378852" departLane="free"/>
  <flow id="JF104300" begin="480" fromJunction="J5" toJunction="J4" end="540" vehsPerHour="33.604312246262495" departLane="free"/>
  <flow id="JF104301" begin="480" fromJunction="J5" toJunction="J6" end="540" vehsPerHour="57.45005625253467" departLane="free"/>
  <flow id="JF104302" begin="480" fromJunction="J7" toJunction="J3" end="540" vehsPerHour="3.900982657270714" departLane="free"/>
  <flow id="JF104303" begin="480" fromJunction="J7" toJunction="J0" end="540" vehsPerHour="87.51425186274656" departLane="free"/>
  <flow id="JF104304" begin="480" fromJunction="J4" toJunction="J3" end="540" vehsPerHour="92.08105612631" departLane="free"/>
  <flow id="JF104305" begin="480" fromJunction="J4" toJunction="J0" end="540" vehsPerHour="5.353865221912296" departLane="free"/>
  <flow id="JF104306" begin="480" fromJunction="J6" toJunction="J3" end="540" vehsPerHour="130.9820005724993" departLane="free"/>
  <flow id="JF104307" begin="480" fromJunction="J6" toJunction="J0" end="540" vehsPerHour="123.8304976234766" departLane="free"/>
  <flow id="JF104308" begin="480" fromJunction="J5" toJunction="J3" end="540" vehsPerHour="70.00506077081704" departLane="free"/>
  <flow id="JF104309" begin="480" fromJunction="J5" toJunction="J0" end="540" vehsPerHour="95.69393866466285" departLane="free"/>
  <flow id="JF104310" begin="540" fromJunction="J3" toJunction="J0" end="600" vehsPerHour="33.72620816630632" departLane="free"/>
  <flow id="JF104311" begin="540" fromJunction="J0" toJunction="J3" end="600" vehsPerHour="55.19181155045693" departLane="free"/>
  <flow id="JF104312" begin="540" fromJunction="J3" toJunction="J7" end="600" vehsPerHour="16.531500255066312" departLane="free"/>
  <flow id="JF104313" begin="540" fromJunction="J3" toJunction="J4" end="600" vehsPerHour="541.9880263061184" departLane="free"/>
  <flow id="JF104314" begin="540" fromJunction="J3" toJunction="J6" end="600" vehsPerHour="235.01448717939235" departLane="free"/>
  <flow id="JF104315" begin="540" fromJunction="J3" toJunction="J5" end="600" vehsPerHour="76.12708820480651" departLane="free"/>
  <flow id="JF104316" begin="540" fromJunction="J0" toJunction="J7" end="600" vehsPerHour="271.77427463897965" departLane="free"/>
  <flow id="JF104317" begin="540" fromJunction="J0" toJunction="J4" end="600" vehsPerHour="302.08129072601173" departLane="free"/>
  <flow id="JF104318" begin="540" fromJunction="J0" toJunction="J6" end="600" vehsPerHour="176.76807693594256" departLane="free"/>
  <flow id="JF104319" begin="540" fromJunction="J0" toJunction="J5" end="600" vehsPerHour="548.0275186982268" departLane="free"/>
  <flow id="JF104320" begin="540" fromJunction="J7" toJunction="J4" end="600" vehsPerHour="33.22292560219248" departLane="free"/>
  <flow id="JF104321" begin="540" fromJunction="J7" toJunction="J6" end="600" vehsPerHour="26.179719300530575" departLane="free"/>
  <flow id="JF104322" begin="540" fromJunction="J7" toJunction="J5" end="600" vehsPerHour="3.5423824963903106" departLane="free"/>
  <flow id="JF104323" begin="540" fromJunction="J4" toJunction="J7" end="600" vehsPerHour="21.10134990946757" departLane="free"/>
  <flow id="JF104324" begin="540" fromJunction="J4" toJunction="J6" end="600" vehsPerHour="25.190429158449593" departLane="free"/>
  <flow id="JF104325" begin="540" fromJunction="J4" toJunction="J5" end="600" vehsPerHour="0.8667725327700869" departLane="free"/>
  <flow id="JF104326" begin="540" fromJunction="J6" toJunction="J7" end="600" vehsPerHour="7.817036602913138" departLane="free"/>
  <flow id="JF104327" begin="540" fromJunction="J6" toJunction="J4" end="600" vehsPerHour="33.41333314226527" departLane="free"/>
  <flow id="JF104328" begin="540" fromJunction="J6" toJunction="J5" end="600" vehsPerHour="15.655764576330071" departLane="free"/>