<?xml version="1.0" encoding="UTF-8"?>
<routes xmlns:xsi="http://www.w3.org/2001/XMLSchema-instance" xsi:noNamespaceSchemaLocation="http://sumo.dlr.de/xsd/routes_file.xsd">
  <flow id="JF116220" begin="0" fromJunction="J3" toJunction="J0" end="60" vehsPerHour="55.41368720160784" departLane="free"/>
  <flow id="JF116221" begin="0" fromJunction="J0" toJunction="J3" end="60" vehsPerHour="69.51019750956984" departLane="free"/>
  <flow id="JF116222" begin="0" fromJunction="J3" toJunction="J7" end="60" vehsPerHour="475.8215547935829" departLane="free"/>
  <flow id="JF116223" begin="0" fromJunction="J3" toJunction="J4" end="60" vehsPerHour="385.3599769145834" departLane="free"/>
  <flow id="JF116224" begin="0" fromJunction="J3" toJunction="J6" end="60" vehsPerHour="161.2236459065779" departLane="free"/>
  <flow id="JF116225" begin="0" fromJunction="J3" toJunction="J5" end="60" vehsPerHour="145.23268367263523" departLane="free"/>
  <flow id="JF116226" begin="0" fromJunction="J0" toJunction="J7" end="60" vehsPerHour="216.28904792319736" departLane="free"/>
  <flow id="JF116227" begin="0" fromJunction="J0" toJunction="J4" end="60" vehsPerHour="170.97653069074352" departLane="free"/>
  <flow id="JF116228" begin="0" fromJunction="J0" toJunction="J6" end="60" vehsPerHour="145.7991007127702" departLane="free"/>
  <flow id="JF116229" begin="0" fromJunction="J0" toJunction="J5" end="60" vehsPerHour="272.9732370628685" departLane="free"/>
  <flow id="JF116230" begin="60" fromJunction="J3" toJunction="J0" end="120" vehsPerHour="34.09214291464786" departLane="free"/>
  <flow id="JF116231" begin="60" fromJunction="J0" toJunction="J3" end="120" vehsPerHour="79.01682366056033" departLane="free"/>
  <flow id="JF116232" begin="60" fromJunction="J3" toJunction="J7" end="120" vehsPerHour="361.05492554280244" departLane="free"/>
  <flow id="JF116233" begin="60" fromJunction="J3" toJunction="J4" end="120" vehsPerHour="473.67657003412774" departLane="free"/>
  <flow id="JF116234" begin="60" fromJunction="J3" toJunction="J6" end="120" vehsPerHour="154.153809038151" departLane="free"/>
  <flow id="JF116235" begin="60" fromJunction="J3" toJunction="J5" end="120" vehsPerHour="503.0414558809219" departLane="free"/>
  <flow id="JF116236" begin="60" fromJunction="J0" toJunction="J7" end="120" vehsPerHour="22.63011572308592" departLane="free"/>
  <flow id="JF116237" begin="60" fromJunction="J0" toJunction="J4" end="120" vehsPerHour="190.16023071604394" departLane="free"/>
  <flow id="JF116238" begin="60" fromJunction="J0" toJunction="J6" end="120" vehsPerHour="8.684366637146017" departLane="free"/>
  <flow id="JF116239" begin="60" fromJunction="J0" toJunction="J5" end="120" vehsPerHour="29.96242800191935" departLane="free"/>
  <flow id="JF116240" begin="60" fromJunction="J7" toJunction="J4" end="120" vehsPerHour="4.7183534673700676" departLane="free"/>
  <flow id="JF116241" begin="60" fromJunction="J7" toJunction="J6" end="120" vehsPerHour="8.7388129200464" departLane="free"/>
  <flow id="JF116242" begin="60" fromJunction="J7" toJunction="J5" end="120" vehsPerHour="8.981685127037785" departLane="free"/>
  <flow id="JF116243" begin="60" fromJunction="J4" toJunction="J7" end="120" vehsPerHour="61.485410778824466" departLane="free"/>
  <flow id="JF116244" begin="60" fromJunction="J4" toJunction="J6" end="120" vehsPerHour="11.157564989588634" departLane="free"/>
  <flow id="JF116245" begin="60" fromJunction="J4" toJunction="J5" end="120" vehsPerHour="34.23566590834629" departLane="free"/>
  <flow id="JF116246" begin="60" fromJunction="J6" toJunction="J7" end="120" vehsPerHour="5.182722019164872" departLane="free"/>
  <flow id="JF116247" begin="60" fromJunction="J6" toJunction="J4" end="120" vehsPerHour="34.015108889521144" departLane="free"/>
  <flow id="JF116248" begin="60" fromJunction="J6" toJunction="J5" end="120" vehsPerHour="11.79000837104639" departLane="free"/>
  <flow id="JF116249" begin="60" fromJunction="J5" toJunction="J7" end="120" vehsPerHour="23.316764619793773" departLane="free"/>
  <flow id="JF116250" begin="60" fromJunction="J5" toJunction="J4" end="120" vehsPerHour="19.778857337422526" departLane="free"/>
  <flow id="JF116251" begin="60" fromJunction="J5" toJunction="J6" end="120" vehsPerHour="37.634785134938404" departLane="free"/>
  <flow id="JF116252" begin="60" fromJunction="J7" toJunction="J3" end="120" vehsPerHour="121.32546386224209" departLane="free"/>
  <flow id="JF116253" begin="60" fromJunction="J7" toJunction="J0" end="120" vehsPerHour="29.949677938364776" departLane="free"/>
  <flow id="JF116254" begin="60" fromJunction="J4" toJunction="J3" end="120" vehsPerHour="19.139415419892433" departLane="free"/>
  <flow id="JF116255" begin="60" fromJunction="J4" toJunction="J0" end="120" vehsPerHour="105.7048220177367" departLane="free"/>
  <flow id="JF116256" begin="60" fromJunction="J6" toJunction="J3" end="120" vehsPerHour="50.61808037990856" departLane="free"/>
  <flow id="JF116257" begin="60" fromJunction="J6" toJunction="J0" end="120" vehsPerHour="101.29816707138744" departLane="free"/>
  <flow id="JF116258" begin="60" fromJunction="J5" toJunction="J3" end="120" vehsPerHour="111.45202016814375" departLane="free"/>
  <flow id="JF116259" begin="60" fromJunction="J5" toJunction="J0" end="120" vehsPerHour="70.47299748971098" departLane="free"/>
  <flow id="JF116260" begin="120" fromJunction="J3" toJunction="J0" end="180" vehsPerHour="23.933099842410428" departLane="free"/>
  <flow id="JF116261" begin="120" fromJunction="J0" toJunction="J3" end="180" vehsPerHour="120.624319585347" departLane="free"/>
  <flow id="JF116262" begin="120" fromJunction="J3" toJunction="J7" end="180" vehsPerHour="292.3407350860025" departLane="free"/>
  <flow id="JF116263" begin="120" fromJunction="J3" toJunction="J4" end="180" vehsPerHour="159.3808619799868" departLane="free"/>
  <flow id="JF116264" begin="120" fromJunction="J3" toJunction="J6" end="180" vehsPerHour="400.2840118933626" departLane="free"/>
  <flow id="JF116265" begin="120" fromJunction="J3" toJunction="J5" end="180" vehsPerHour="274.01130861878545" departLane="free"/>
  <flow id="JF116266" begin="120" fromJunction="J0" toJunction="J7" end="180" vehsPerHour="316.6865315130846" departLane="free"/>
  <flow id="JF116267" begin="120" fromJunction="J0" toJunction="J4" end="180" vehsPerHour="362.0047290447143" departLane="free"/>
  <flow id="JF116268" begin="120" fromJunction="J0" toJunction="J6" end="180" vehsPerHour="411.9112438598357" departLane="free"/>
  <flow id="JF116269" begin="120" fromJunction="J0" toJunction="J5" end="180" vehsPerHour="225.81051271425312" departLane="free"/>
  <flow id="JF116270" begin="120" fromJunction="J7" toJunction="J4" end="180" vehsPerHour="16.58892084290197" departLane="free"/>
  <flow id="JF116271" begin="120" fromJunction="J7" toJunction="J6" end="180" vehsPerHour="25.3215752218262" departLane="free"/>
  <flow id="JF116272" begin="120" fromJunction="J7" toJunction="J5" end="180" vehsPerHour="8.6251159610957" departLane="free"/>
  <flow id="JF116273" begin="120" fromJunction="J4" toJunction="J7" end="180" vehsPerHour="21.39633041515296" departLane="free"/>
  <flow id="JF116274" begin="120" fromJunction="J4" toJunction="J6" end="180" vehsPerHour="57.926241566799995" departLane="free"/>
  <flow id="JF116275" begin="120" fromJunction="J4" toJunction="J5" end="180" vehsPerHour="53.81507112516233" departLane="free"/>
  <flow id="JF116276" begin="120" fromJunction="J6" toJunction="J7" end="180" vehsPerHour="11.496647541225226" departLane="free"/>
  <flow id="JF116277" begin="120" fromJunction="J6" toJunction="J4" end="180" vehsPerHour="30.669989506669012" departLane="free"/>
  <flow id="JF116278" begin="120" fromJunction="J6" toJunction="J5" end="180" vehsPerHour="3.3953343027806944" departLane="free"/>
  <flow id="JF116279" begin="120" fromJunction="J5" toJunction="J7" end="180" vehsPerHour="10.579377069677092" departLane="free"/>
  <flow id="JF116280" begin="120" fromJunction="J5" toJunction="J4" end="180" vehsPerHour="27.061032325227238" departLane="free"/>
  <flow id="JF116281" begin="120" fromJunction="J5" toJunction="J6" end="180" vehsPerHour="6.004150359555151" departLane="free"/>
  <flow id="JF116282" begin="120" fromJunction="J7" toJunction="J3" end="180" vehsPerHour="119.5989131612212" departLane="free"/>
  <flow id="JF116283" begin="120" fromJunction="J7" toJunction="J0" end="180" vehsPerHour="79.12682932662614" departLane="free"/>
  <flow id="JF116284" begin="120" fromJunction="J4" toJunction="J3" end="180" vehsPerHour="61.70267309499182" departLane="free"/>
  <flow id="JF116285" begin="120" fromJunction="J4" toJunction="J0" end="180" vehsPerHour="115.37636726984526" departLane="free"/>
  <flow id="JF116286" begin="120" fromJunction="J6" toJunction="J3" end="180" vehsPerHour="93.3715108544572" departLane="free"/>
  <flow id="JF116287" begin="120" fromJunction="J6" toJunction="J0" end="180" vehsPerHour="135.74754410598769" departLane="free"/>
  <flow id="JF116288" begin="120" fromJunction="J5" toJunction="J3" end="180" vehsPerHour="74.12545641572142" departLane="free"/>
  <flow id="JF116289" begin="120" fromJunction="J5" toJunction="J0" end="180" vehsPerHour="127.86586434457307" departLane="free"/>
  <flow id="JF116290" begin="180" fromJunction="J3" toJunction="J0" end="240" vehsPerHour="33.94458206752898" departLane="free"/>
  <flow id="JF116291" begin="180" fromJunction="J0" toJunction="J3" end="240" vehsPerHour="9.18993168756466" departLane="free"/>
  <flow id="JF116292" begin="180" fromJunction="J3" toJunction="J7" end="240" vehsPerHour="117.31677310056943" departLane="free"/>
  <flow id="JF116293" begin="180" fromJunction="J3" toJunction="J4" end="240" vehsPerHour="150.50424456473337" departLane="free"/>
  <flow id="JF116294" begin="180" fromJunction="J3" toJunction="J6" end="240" vehsPerHour="494.44931669411596" departLane="free"/>
  <flow id="JF116295" begin="180" fromJunction="J3" toJunction="J5" end="240" vehsPerHour="4.100076797369113" departLane="free"/>
  <flow id="JF116296" begin="180" fromJunction="J0" toJunction="J7" end="240" vehsPerHour="403.24610485673503" departLane="free"/>
  <flow id="JF116297" begin="180" fromJunction="J0" toJunction="J4" end="240" vehsPerHour="447.30043258989986" departLane="free"/>
  <flow id="JF116298" begin="180" fromJunction="J0" toJunction="J6" end="240" vehsPerHour="97.39312993716204" departLane="free"/>
  <flow id="JF116299" begin="180" fromJunction="J0" toJunction="J5" end="240" vehsPerHour="510.0747627950293" departLane="free"/>
  <flow id="JF116300" begin="180" fromJunction="J7" toJunction="J4" end="240" vehsPerHour="18.67335585085761" departLane="free"/>
  <flow id="JF116301" begin="180" fromJunction="J7" toJunction="J6" end="240" vehsPerHour="0.44122469088927047" departLane="free"/>
  <flow id="JF116302" begin="180" fromJunction="J7" toJunction="J5" end="240" vehsPerHour="30.49600770596327" departLane="free"/>
  <flow id="JF116303" begin="180" fromJunction="J4" toJunction="J7" end="240" vehsPerHour="36.28693129817881" departLane="free"/>
  <flow id="JF116304" begin="180" fromJunction="J4" toJunction="J6" end="240" vehsPerHour="39.52307137307682" departLane="free"/>
  <flow id="JF116305" begin="180" fromJunction="J4" toJunction="J5" end="240" vehsPerHour="37.102241460080485" departLane="free"/>
  <flow id="JF116306" begin="180" fromJunction="J6" toJunction="J7" end="240" vehsPerHour="45.90152925622027" departLane="free"/>
  <flow id="JF116307" begin="180" fromJunction="J6" toJunction="J4" end="240" vehsPerHour="9.116153209225597" departLane="free"/>
  <flow id="JF116308" begin="180" fromJunction="J6" toJunction="J5" end="240" vehsPerHour="3.0281442073555676" departLane="free"/>
  <flow id="JF116309" begin="180" fromJunction="J5" toJunction="J7" end="240" vehsPerHour="27.546499928717942" departLane="free"/>
  <flow id="JF116310" begin="180" fromJunction="J5" toJunction="J4" end="240" vehsPerHour="2.440474008538424" departLane="free"/>
  <flow id="JF116311" begin="180" fromJunction="J5" toJunction="J6" end="240" vehsPerHour="59.59641663821024" departLane="free"/>
  <flow id="JF116312" begin="180" fromJunction="J7" toJunction="J3" end="240" vehsPerHour="101.11274989657291" departLane="free"/>
  <flow id="JF116313" begin="180" fromJunction="J7" toJunction="J0" end="240" vehsPerHour="17.662379926517914" departLane="free"/>
  <flow id="JF116314" begin="180" fromJunction="J4" toJunction="J3" end="240" vehsPerHour="134.4480391550552" departLane="free"/>
  <flow id="JF116315" begin="180" fromJunction="J4" toJunction="J0" end="240" vehsPerHour="3.49877438979063" departLane="free"/>
  <flow id="JF116316" begin="180" fromJunction="J6" toJunction="J3" end="240" vehsPerHour="79.98492947882914" departLane="free"/>
  <flow id="JF116317" begin="180" fromJunction="J6" toJunction="J0" end="240" vehsPerHour="114.47405296646801" departLane="free"/>
  <flow id="JF116318" begin="180" fromJunction="J5" toJunction="J3" end="240" vehsPerHour="32.79803838293472" departLane="free"/>
  <flow id="JF116319" begin="180" fromJunction="J5" toJunction="J0" end="240" vehsPerHour="115.22805162244633" departLane="free"/>
  <flow id="JF116320" begin="240" fromJunction="J3" toJunction="J0" end="300" vehsPerHour="27.812885339126517" departLane="free"/>
  <flow id="JF116321" begin="240" fromJunction="J0" toJunction="J3" end="300" vehsPerHour="130.10181678439233" departLane="free"/>
  <flow id="JF116322" begin="240" fromJunction="J3" toJunction="J7" end="300" vehsPerHour="410.65103946192187" departLane="free"/>
  <flow id="JF116323" begin="240" fromJunction="J3" toJunction="J4" end="300" vehsPerHour="213.68308756388336" departLane="free"/>
  <flow id="JF116324" begin="240" fromJunction="J3" toJunction="J6" end="300" vehsPerHour="321.25288347069375" departLane="free"/>
  <flow id="JF116325" begin="240" fromJunction="J3" toJunction="J5" end="300" vehsPerHour="549.2228299963444" departLane="free"/>
  <flow id="JF116326" begin="240" fromJunction="J0" toJunction="J7" end="300" vehsPerHour="99.71520369261977" departLane="free"/>
  <flow id="JF116327" begin="240" fromJunction="J0" toJunction="J4" end="300" vehsPerHour="524.3209145435148" departLane="free"/>
  <flow id="JF116328" begin="240" fromJunction="J0" toJunction="J6" end="300" vehsPerHour="84.4139966538711" departLane="free"/>
  <flow id="JF116329" begin="240" fromJunction="J0" toJunction="J5" end="300" vehsPerHour="512.5730475695532" departLane="free"/>
  <flow id="JF116330" begin="240" fromJunction="J7" toJunction="J4" end="300" vehsPerHour="1.4222628169164968" departLane="free"/>
  <flow id="JF116331" begin="240" fromJunction="J7" toJunction="J6" end="300" vehsPerHour="5.953810716949692" departLane="free"/>
  <flow id="JF116332" begin="240" fromJunction="J7" toJunction="J5" end="300" vehsPerHour="11.830405249906654" departLane="free"/>
  <flow id="JF116333" begin="240" fromJunction="J4" toJunction="J7" end="300" vehsPerHour="0.4959310666615213" departLane="free"/>
  <flow id="JF116334" begin="240" fromJunction="J4" toJunction="J6" end="300" vehsPerHour="11.376448394067245" departLane="free"/>
  <flow id="JF116335" begin="240" fromJunction="J4" toJunction="J5" end="300" vehsPerHour="35.311729232554995" departLane="free"/>
  <flow id="JF116336" begin="240" fromJunction="J6" toJunction="J7" end="300" vehsPerHour="19.11000390177655" departLane="free"/>
  <flow id="JF116337" begin="240" fromJunction="J6" toJunction="J4" end="300" vehsPerHour="14.915178751757763" departLane="free"/>
  <flow id="JF116338" begin="240" fromJunction="J6" toJunction="J5" end="300" vehsPerHour="27.129280973158863" departLane="free"/>
  <flow id="JF116339" begin="240" fromJunction="J5" toJunction="J7" end="300" vehsPerHour="50.841039078864455" departLane="free"/>
  <flow id="JF116340" begin="240" fromJunction="J5" toJunction="J4" end="300" vehsPerHour="4.705469913374471" departLane="free"/>
  <flow id="JF116341" begin="240" fromJunction="J5" toJunction="J6" end="300" vehsPerHour="25.429153565589374" departLane="free"/>
  <flow id="JF116342" begin="240" fromJunction="J7" toJunction="J3" end="300" vehsPerHour="11.078214409278415" departLane="free"/>
  <flow id="JF116343" begin="240" fromJunction="J7" toJunction="J0" end="300" vehsPerHour="74.4182315652491" departLane="free"/>
  <flow id="JF116344" begin="240" fromJunction="J4" toJunction="J3" end="300" vehsPerHour="75.48626773858301" departLane="free"/>
  <flow id="JF116345" begin="240" fromJunction="J4" toJunction="J0" end="300" vehsPerHour="100.39588688209568" departLane="free"/>
  <flow id="JF116346" begin="240" fromJunction="J6" toJunction="J3" end="300" vehsPerHour="57.77331004569175" departLane="free"/>
  <flow id="JF116347" begin="240" fromJunction="J6" toJunction="J0" end="300" vehsPerHour="28.4405972628641" departLane="free"/>
  <flow id="JF116348" begin="240" fromJunction="J5" toJunction="J3" end="300" vehsPerHour="11.974381569496943" departLane="free"/>
  <flow id="JF116349" begin="240" fromJunction="J5" toJunction="J0" end="300" vehsPerHour="98.35294342955055" departLane="free"/>
  <flow id="JF116350" begin="300" fromJunction="J3" toJunction="J0" end="360" vehsPerHour="59.801964540819576" departLane="free"/>
  <flow id="JF116351" begin="300" fromJunction="J0" toJunction="J3" end="360" vehsPerHour="50.235194350121446" departLane="free"/>
  <flow id="JF116352" begin="300" fromJunction="J3" toJunction="J7" end="360" vehsPerHour="548.8131253762497" departLane="free"/>
  <flow id="JF116353" begin="300" fromJunction="J3" toJunction="J4" end="360" vehsPerHour="109.32527763220679" departLane="free"/>
  <flow id="JF116354" begin="300" fromJunction="J3" toJunction="J6" end="360" vehsPerHour="2.6975278845053627" departLane="free"/>
  <flow id="JF116355" begin="300" fromJunction="J3" toJunction="J5" end="360" vehsPerHour="394.5496210844474" departLane="free"/>
  <flow id="JF116356" begin="300" fromJunction="J0" toJunction="J7" end="360" vehsPerHour="44.58459600154366" departLane="free"/>
  <flow id="JF116357" begin="300" fromJunction="J0" toJunction="J4" end="360" vehsPerHour="69.93011249515918" departLane="free"/>
  <flow id="JF116358" begin="300" fromJunction="J0" toJunction="J6" end="360" vehsPerHour="248.2605096392033" departLane="free"/>
  <flow id="JF116359" begin="300" fromJunction="J0" toJunction="J5" end="360" vehsPerHour="433.74534170239446" departLane="free"/>
  <flow id="JF116360" begin="300" fromJunction="J7" toJunction="J4" end="360" vehsPerHour="4.6369012735723345" departLane="free"/>
  <flow id="JF116361" begin="300" fromJunction="J7" toJunction="J6" end="360" vehsPerHour="20.011601740922913" departLane="free"/>
  <flow id="JF116362" begin="300" fromJunction="J7" toJunction="J5" end="360" vehsPerHour="2.6157822594054405" departLane="free"/>
  <flow id="JF116363" begin="300" fromJunction="J4" toJunction="J7" end="360" vehsPerHour="62.74268756782561" departLane="free"/>
  <flow id="JF116364" begin="300" fromJunction="J4" toJunction="J6" end="360" vehsPerHour="0.9354196065589077" departLane="free"/>
  <flow id="JF116365" begin="300" fromJunction="J4" toJunction="J5" end="360" vehsPerHour="34.032946706808154" departLane="free"/>
  <flow id="JF116366" begin="300" fromJunction="J6" toJunction="J7" end="360" vehsPerHour="17.051690770828895" departLane="free"/>
  <flow id="JF116367" begin="300" fromJunction="J6" toJunction="J4" end="360" vehsPerHour="1.4321477989204854" departLane="free"/>
  <flow id="JF116368" begin="300" fromJunction="J6" toJunction="J5" end="360" vehsPerHour="4.795438743893857" departLane="free"/>
  <flow id="JF116369" begin="300" fromJunction="J5" toJunction="J7" end="360" vehsPerHour="55.71787742433645" departLane="free"/>
  <flow id="JF116370" begin="300" fromJunction="J5" toJunction="J4" end="360" vehsPerHour="5.081817582323188" departLane="free"/>
  <flow id="JF116371" begin="300" fromJunction="J5" toJunction="J6" end="360" vehsPerHour="42.7469031836758" departLane="free"/>
  <flow id="JF116372" begin="300" fromJunction="J7" toJunction="J3" end="360" vehsPerHour="132.68832349338246" departLane="free"/>
  <flow id="JF116373" begin="300" fromJunction="J7" toJunction="J0" end="360" vehsPerHour="131.2413415181944" departLane="free"/>
  <flow id="JF116374" begin="300" fromJunction="J4" toJunction="J3" end="360" vehsPerHour="58.84671250008643" departLane="free"/>
  <flow id="JF116375" begin="300" fromJunction="J4" toJunction="J0" end="360" vehsPerHour="11.326074105776287" departLane="free"/>
  <flow id="JF116376" begin="300" fromJunction="J6" toJunction="J3" end="360" vehsPerHour="132.28990398408598" departLane="free"/>
  <flow id="JF116377" begin="300" fromJunction="J6" toJunction="J0" end="360" vehsPerHour="128.17160907864815" departLane="free"/>
  <flow id="JF116378" begin="300" fromJunction="J5" toJunction="J3" end="360" vehsPerHour="81.02912849557814" departLane="free"/>
  <flow id="JF116379" begin="300" fromJunction="J5" toJunction="J0" end="360" vehsPerHour="52.00661634006126" departLane="free"/>
  <flow id="JF116380" begin="360" fromJunction="J3" toJunction="J0" end="420" vehsPerHour="43.58305433631656" departLane="free"/>
  <flow id="JF116381" begin="360" fromJunction="J0" toJunction="J3" end="420" vehsPerHour="127.22433934199768" departLane="free"/>
  <flow id="JF116382" begin="360" fromJunction="J3" toJunction="J7" end="420" vehsPerHour="36.62489675756745" departLane="free"/>
  <flow id="JF116383" begin="360" fromJunction="J3" toJunction="J4" end="420" vehsPerHour="407.13243518546375" departLane="free"/>
  <flow id="JF116384" begin="360" fromJunction="J3" toJunction="J6" end="420" vehsPerHour="1.9336096208928872" departLane="free"/>
  <flow id="JF116385" begin="360" fromJunction="J3" toJunction="J5" end="420" vehsPerHour="540.7412905809351" departLane="free"/>
  <flow id="JF116386" begin="360" fromJunction="J0" toJunction="J7" end="420" vehsPerHour="272.90609979409913" departLane="free"/>
  <flow id="JF116387" begin="360" fromJunction="J0" toJunction="J4" end="420" vehsPerHour="342.3739766612034" departLane="free"/>
  <flow id="JF116388" begin="360" fromJunction="J0" toJunction="J6" end="420" vehsPerHour="238.71675900301224" departLane="free"/>
  <flow id="JF116389" begin="360" fromJunction="J0" toJunction="J5" end="420" vehsPerHour="407.61306163734844" departLane="free"/>
  <flow id="JF116390" begin="360" fromJunction="J7" toJunction="J4" end="420" vehsPerHour="25.188569200785512" departLane="free"/>
  <flow id="JF116391" begin="360" fromJunction="J7" toJunction="J6" end="420" vehsPerHour="0.6392856981529249" departLane="free"/>
  <flow id="JF116392" begin="360" fromJunction="J7" toJunction="J5" end="420" vehsPerHour="14.638395154754992" departLane="free"/>
  <flow id="JF116393" begin="360" fromJunction="J4" toJunction="J7" end="420" vehsPerHour="1.559518288127228" departLane="free"/>
  <flow id="JF116394" begin="360" fromJunction="J4" toJunction="J6" end="420" vehsPerHour="42.261838002932365" departLane="free"/>
  <flow id="JF116395" begin="360" fromJunction="J4" toJunction="J5" end="420" vehsPerHour="65.64953741241916" departLane="free"/>
  <flow id="JF116396" begin="360" fromJunction="J6" toJunction="J7" end="420" vehsPerHour="58.989617915292136" departLane="free"/>
  <flow id="JF116397" begin="360" fromJunction="J6" toJunction="J4" end="420" vehsPerHour="28.539486044111253" departLane="free"/>
  <flow id="JF116398" begin="360" fromJunction="J6" toJunction="J5" end="420" vehsPerHour="11.90282825495311" departLane="free"/>
  <flow id="JF116399" begin="360" fromJunction="J5" toJunction="J7" end="420" vehsPerHour="4.378137209304398" departLane="free"/>
  <flow id="JF116400" begin="360" fromJunction="J5" toJunction="J4" end="420" vehsPerHour="2.994758606970244" departLane="free"/>
  <flow id="JF116401" begin="360" fromJunction="J5" toJunction="J6" end="420" vehsPerHour="67.30488716222136" departLane="free"/>
  <flow id="JF116402" begin="360" fromJunction="J7" toJunction="J3" end="420" vehsPerHour="16.724949070302365" departLane="free"/>
  <flow id="JF116403" begin="360" fromJunction="J7" toJunction="J0" end="420" vehsPerHour="11.06941558505463" departLane="free"/>
  <flow id="JF116404" begin="360" fromJunction="J4" toJunction="J3" end="420" vehsPerHour="93.08151362581752" departLane="free"/>
  <flow id="JF116405" begin="360" fromJunction="J4" toJunction="J0" end="420" vehsPerHour="24.71837895025676" departLane="free"/>
  <flow id="JF116406" begin="360" fromJunction="J6" toJunction="J3" end="420" vehsPerHour="4.655137713152417" departLane="free"/>
  <flow id="JF116407" begin="360" fromJunction="J6" toJunction="J0" end="420" vehsPerHour="115.67654347237995" departLane="free"/>
  <flow id="JF116408" begin="360" fromJunction="J5" toJunction="J3" end="420" vehsPerHour="1.368859250872602" departLane="free"/>
  <flow id="JF116409" begin="360" fromJunction="J5" toJunction="J0" end="420" vehsPerHour="59.11222530908879" departLane="free"/>
  <flow id="JF116410" begin="420" fromJunction="J3" toJunction="J0" end="480" vehsPerHour="37.63239162719166" departLane="free"/>
  <flow id="JF116411" begin="420" fromJunction="J0" toJunction="J3" end="480" vehsPerHour="73.20606374786672" departLane="free"/>
  <flow id="JF116412" begin="420" fromJunction="J3" toJunction="J7" end="480" vehsPerHour="392.35509928234393" departLane="free"/>
  <flow id="JF116413" begin="420" fromJunction="J3" toJunction="J4" end="480" vehsPerHour="404.80435785259823" departLane="free"/>
  <flow id="JF116414" begin="420" fromJunction="J3" toJunction="J6" end="480" vehsPerHour="242.459923149925" departLane="free"/>
  <flow id="JF116415" begin="420" fromJunction="J3" toJunction="J5" end="480" vehsPerHour="88.80909184597645" departLane="free"/>
  <flow id="JF116416" begin="420" fromJunction="J0" toJunction="J7" end="480" vehsPerHour="243.56401039481838" departLane="free"/>
  <flow id="JF116417" begin="420" fromJunction="J0" toJunction="J4" end="480" vehsPerHour="285.8598621873549" departLane="free"/>
  <flow id="JF116418" begin="420" fromJunction="J0" toJunction="J6" end="480" vehsPerHour="148.16054802860734" departLane="free"/>
  <flow id="JF116419" begin="420" fromJunction="J0" toJunction="J5" end="480" vehsPerHour="412.522063164379" departLane="free"/>
  <flow id="JF116420" begin="420" fromJunction="J7" toJunction="J4" end="480" vehsPerHour="1.5686293588338807" departLane="free"/>
  <flow id="JF116421" begin="420" fromJunction="J7" toJunction="J6" end="480" vehsPerHour="1.4570707407319066" departLane="free"/>
  <flow id="JF116422" begin="420" fromJunction="J7" toJunction="J5" end="480" vehsPerHour="0.48143754610380457" departLane="free"/>
  <flow id="JF116423" begin="420" fromJunction="J4" toJunction="J7" end="480" vehsPerHour="32.0002601686333" departLane="free"/>
  <flow id="JF116424" begin="420" fromJunction="J4" toJunction="J6" end="480" vehsPerHour="35.69657280809577" departLane="free"/>
  <flow id="JF116425" begin="420" fromJunction="J4" toJunction="J5" end="480" vehsPerHour="30.283252020851336" departLane="free"/>
  <flow id="JF116426" begin="420" fromJunction="J6" toJunction="J7" end="480" vehsPerHour="57.288343633962356" departLane="free"/>
  <flow id="JF116427" begin="420" fromJunction="J6" toJunction="J4" end="480" vehsPerHour="31.990802109884264" departLane="free"/>
  <flow id="JF116428" begin="420" fromJunction="J6" toJunction="J5" end="480" vehsPerHour="6.7076386512288595" departLane="free"/>
  <flow id="JF116429" begin="420" fromJunction="J5" toJunction="J7" end="480" vehsPerHour="65.14603249309748" departLane="free"/>
  <flow id="JF116430" begin="420" fromJunction="J5" toJunction="J4" end="480" vehsPerHour="7.383829152218173" departLane="free"/>
  <flow id="JF116431" begin="420" fromJunction="J5" toJunction="J6" end="480" vehsPerHour="42.89770702586624" departLane="free"/>
  <flow id="JF116432" begin="420" fromJunction="J7" toJunction="J3" end="480" vehsPerHour="63.2398804504617" departLane="free"/>
  <flow id="JF116433" begin="420" fromJunction="J7" toJunction="J0" end="480" vehsPerHour="79.3404792159468" departLane="free"/>
  <flow id="JF116434" begin="420" fromJunction="J4" toJunction="J3" end="480" vehsPerHour="108.07129224901924" departLane="free"/>
  <flow id="JF116435" begin="420" fromJunction="J4" toJunction="J0" end="480" vehsPerHour="39.70954879575971" departLane="free"/>
  <flow id="JF116436" begin="420" fromJunction="J6" toJunction="J3" end="480" vehsPerHour="93.78763060770132" departLane="free"/>
  <flow id="JF116437" begin="420" fromJunction="J6" toJunction="J0" end="480" vehsPerHour="101.73865131361867" departLane="free"/>
  <flow id="JF116438" begin="420" fromJunction="J5" toJunction="J3" end="480" vehsPerHour="125.55812107262105" departLane="free"/>
  <flow id="JF116439" begin="420" fromJunction="J5" toJunction="J0" end="480" vehsPerHour="116.01030489921948" departLane="free"/>
  <flow id="JF116440" begin="480" fromJunction="J3" toJunction="J0" end="540" vehsPerHour="21.58875089732525" departLane="free"/>
  <flow id="JF116441" begin="480" fromJunction="J0" toJunction="J3" end="540" vehsPerHour="19.563512368275983" departLane="free"/>
  <flow id="JF116442" begin="480" fromJunction="J3" toJunction="J7" end="540" vehsPerHour="383.31502057356914" departLane="free"/>
  <flow id="JF116443" begin="480" fromJunction="J3" toJunction="J4" end="540" vehsPerHour="361.26429073459906" departLane="free"/>
  <flow id="JF116444" begin="480" fromJunction="J3" toJunction="J6" end="540" vehsPerHour="50.005504650695585" departLane="free"/>
  <flow id="JF116445" begin="480" fromJunction="J3" toJunction="J5" end="540" vehsPerHour="60.902528999239316" departLane="free"/>
  <flow id="JF116446" begin="480" fromJunction="J0" toJunction="J7" end="540" vehsPerHour="179.6901185670688" departLane="free"/>
  <flow id="JF116447" begin="480" fromJunction="J0" toJunction="J4" end="540" vehsPerHour="428.00601828091914" departLane="free"/>
  <flow id="JF116448" begin="480" fromJunction="J0" toJunction="J6" end="540" vehsPerHour="10.29067521478434" departLane="free"/>