<?xml version="1.0" encoding="UTF-8"?>
<routes xmlns:xsi="http://www.w3.org/2001/XMLSchema-instance" xsi:noNamespaceSchemaLocation="http://sumo.dlr.de/xsd/routes_file.xsd">
  <flow id="JF100100" begin="0" fromJunction="J3" toJunction="J0" end="60" vehsPerHour="44.259596454583125" departLane="free"/>
  <flow id="JF100101" begin="0" fromJunction="J0" toJunction="J3" end="60" vehsPerHour="43.485968203869525" departLane="free"/>
  <flow id="JF100102" begin="0" fromJunction="J3" toJunction="J7" end="60" vehsPerHour="394.9645133414272" departLane="free"/>
  <flow id="JF100103" begin="0" fromJunction="J3" toJunction="J4" end="60" vehsPerHour="486.47848362458416" departLane="free"/>
  <flow id="JF100104" begin="0" fromJunction="J3" toJunction="J6" end="60" vehsPerHour="117.08494900639545" departLane="free"/>
  <flow id="JF100105" begin="0" fromJunction="J3" toJunction="J5" end="60" vehsPerHour="12.152827475541027" departLane="free"/>
  <flow id="JF100106" begin="0" fromJunction="J0" toJunction="J7" end="60" vehsPerHour="131.81015945510507" departLane="free"/>
  <flow id="JF100107" begin="0" fromJunction="J0" toJunction="J4" end="60" vehsPerHour="205.59304945051068" departLane="free"/>
  <flow id="JF100108" begin="0" fromJunction="J0" toJunction="J6" end="60" vehsPerHour="73.13698616986483" departLane="free"/>
  <flow id="JF100109" begin="0" fromJunction="J0" toJunction="J5" end="60" vehsPerHour="342.36807431603955" departLane="free"/>
  <flow id="JF100110" begin="0" fromJunction="J7" toJunction="J4" end="60" vehsPerHour="4.122667702240992" departLane="free"/>
  <flow id="JF100111" begin="0" fromJunction="J7" toJunction="J6" end="60" vehsPerHour="6.433282205401989" departLane="free"/>
  <flow id="JF100112" begin="0" fromJunction="J7" toJunction="J5" end="60" vehsPerHour="8.510874833420349" departLane="free"/>
  <flow id="JF100113" begin="0" fromJunction="J4" toJunction="J7" end="60" vehsPerHour="5.198518190700713" departLane="free"/>
  <flow id="JF100114" begin="0" fromJunction="J4" toJunction="J6" end="60" vehsPerHour="12.073985795929937" departLane="free"/>
  <flow id="JF100115" begin="0" fromJunction="J4" toJunction="J5" end="60" vehsPerHour="18.398332565751552" departLane="free"/>
  <flow id="JF100116" begin="0" fromJunction="J6" toJunction="J7" end="60" vehsPerHour="25.51728101376918" departLane="free"/>
  <flow id="JF100117" begin="0" fromJunction="J6" toJunction="J4" end="60" vehsPerHour="5.607157977264174" departLane="free"/>
  <flow id="JF100118" begin="0" fromJunction="J6" toJunction="J5" end="60" vehsPerHour="22.8736211903812" departLane="free"/>
  <flow id="JF100119" begin="0" fromJunction="J5" toJunction="J7" end="60" vehsPerHour="49.48089523051091" departLane="free"/>
  <flow id="JF100120" begin="0" fromJunction="J5" toJunction="J4" end="60" vehsPerHour="13.921583475931737" departLane="free"/>
  <flow id="JF100121" begin="0" fromJunction="J5" toJunction="J6" end="60" vehsPerHour="58.370788317634926" departLane="free"/>
  <flow id="JF100122" begin="0" fromJunction="J7" toJunction="J3" end="60" vehsPerHour="103.18264739301279" departLane="free"/>
  <flow id="JF100123" begin="0" fromJunction="J7" toJunction="J0" end="60" vehsPerHour="70.74944924962507" departLane="free"/>
  <flow id="JF100124" begin="0" fromJunction="J4" toJunction="J3" end="60" vehsPerHour="22.03217708906654" departLane="free"/>
  <flow id="JF100125" begin="0" fromJunction="J4" toJunction="J0" end="60" vehsPerHour="55.80192640294666" departLane="free"/>
  <flow id="JF100126" begin="0" fromJunction="J6" toJunction="J3" end="60" vehsPerHour="105.88203342818001" departLane="free"/>
  <flow id="JF100127" begin="0" fromJunction="J6" toJunction="J0" end="60" vehsPerHour="62.45856830712334" departLane="free"/>
  <flow id="JF100128" begin="0" fromJunction="J5" toJunction="J3" end="60" vehsPerHour="2.8855842153460847" departLane="free"/>
  <flow id="JF100129" begin="0" fromJunction="J5" toJunction="J0" end="60" vehsPerHour="134.85584167426614" departLane="free"/>
  <flow id="JF100130" begin="60" fromJunction="J3" toJunction="J0" end="120" vehsPerHour="58.10223585478969" departLane="free"/>
  <flow id="JF100131" begin="60" fromJunction="J0" toJunction="J3" end="120" vehsPerHour="71.0888754657202" departLane="free"/>
  <flow id="JF100132" begin="60" fromJunction="J3" toJunction="J7" end="120" vehsPerHour="106.44031375349356" departLane="free"/>
  <flow id="JF100133" begin="60" fromJunction="J3" toJunction="J4" end="120" vehsPerHour="316.5708905947085" departLane="free"/>
  <flow id="JF100134" begin="60" fromJunction="J3" toJunction="J6" end="120" vehsPerHour="189.6213880671465" departLane="free"/>
  <flow id="JF100135" begin="60" fromJunction="J3" toJunction="J5" end="120" vehsPerHour="468.9446481743187" departLane="free"/>
  <flow id="JF100136" begin="60" fromJunction="J0" toJunction="J7" end="120" vehsPerHour="27.4172368986955" departLane="free"/>
  <flow id="JF100137" begin="60" fromJunction="J0" toJunction="J4" end="120" vehsPerHour="426.10759928958777" departLane="free"/>
  <flow id="JF100138" begin="60" fromJunction="J0" toJunction="J6" end="120" vehsPerHour="412.96106396858954" departLane="free"/>
  <flow id="JF100139" begin="60" fromJunction="J0" toJunction="J5" end="120" vehsPerHour="311.0575450086945" departLane="free"/>
  <flow id="JF100140" begin="60" fromJunction="J7" toJunction="J4" end="120" vehsPerHour="7.593135605865726" departLane="free"/>
  <flow id="JF100141" begin="60" fromJunction="J7" toJunction="J6" end="120" vehsPerHour="14.446403938138204" departLane="free"/>
  <flow id="JF100142" begin="60" fromJunction="J7" toJunction="J5" end="120" vehsPerHour="23.34317153158899" departLane="free"/>
  <flow id="JF100143" begin="60" fromJunction="J4" toJunction="J7" end="120" vehsPerHour="40.537557938968206" departLane="free"/>
  <flow id="JF100144" begin="60" fromJunction="J4" toJunction="J6" end="120" vehsPerHour="35.15548972499602" departLane="free"/>
  <flow id="JF100145" begin="60" fromJunction="J4" toJunction="J5" end="120" vehsPerHour="18.571949715008127" departLane="free"/>
  <flow id="JF100146" begin="60" fromJunction="J6" toJunction="J7" end="120" vehsPerHour="4.972793569260652" departLane="free"/>
  <flow id="JF100147" begin="60" fromJunction="J6" toJunction="J4" end="120" vehsPerHour="30.95739919339479" departLane="free"/>
  <flow id="JF100148" begin="60" fromJunction="J6" toJunction="J5" end="120" vehsPerHour="11.003494301147484" departLane="free"/>
  <flow id="JF100149" begin="60" fromJunction="J5" toJunction="J7" end="120" vehsPerHour="62.17471307924695" departLane="free"/>
  <flow id="JF100150" begin="60" fromJunction="J5" toJunction="J4" end="120" vehsPerHour="0.4935468412589211" departLane="free"/>
  <flow id="JF100151" begin="60" fromJunction="J5" toJunction="J6" end="120" vehsPerHour="23.142741517797536" departLane="free"/>
  <flow id="JF100152" begin="60" fromJunction="J7" toJunction="J3" end="120" vehsPerHour="99.52624370521265" departLane="free"/>
  <flow id="JF100153" begin="60" fromJunction="J7" toJunction="J0" end="120" vehsPerHour="120.6323295167689" departLane="free"/>
  <flow id="JF100154" begin="60" fromJunction="J4" toJunction="J3" end="120" vehsPerHour="30.48803601662357" departLane="free"/>
  <flow id="JF100155" begin="60" fromJunction="J4" toJunction="J0" end="120" vehsPerHour="65.43220937171259" departLane="free"/>
  <flow id="JF100156" begin="60" fromJunction="J6" toJunction="J3" end="120" vehsPerHour="29.596827788592798" departLane="free"/>
  <flow id="JF100157" begin="60" fromJunction="J6" toJunction="J0" end="120" vehsPerHour="134.51723658657656" departLane="free"/>
  <flow id="JF100158" begin="60" fromJunction="J5" toJunction="J3" end="120" vehsPerHour="73.26120333470418" departLane="free"/>
  <flow id="JF100159" begin="60" fromJunction="J5" toJunction="J0" end="120" vehsPerHour="90.36641002178048" departLane="free"/>
  <flow id="JF100160" begin="120" fromJunction="J3" toJunction="J0" end="180" vehsPerHour="50.38820676231406" departLane="free"/>
  <flow id="JF100161" begin="120" fromJunction="J0" toJunction="J3" end="180" vehsPerHour="62.39421552729832" departLane="free"/>
  <flow id="JF100162" begin="120" fromJunction="J3" toJunction="J7" end="180" vehsPerHour="166.56882994483726" departLane="free"/>
  <flow id="JF100163" begin="120" fromJunction="J3" toJunction="J4" end="180" vehsPerHour="79.32824235408889" departLane="free"/>
  <flow id="JF100164" begin="120" fromJunction="J3" toJunction="J6" end="180" vehsPerHour="390.61357136557194" departLane="free"/>
  <flow id="JF100165" begin="120" fromJunction="J3" toJunction="J5" end="180" vehsPerHour="303.8172446404358" departLane="free"/>
  <flow id="JF100166" begin="120" fromJunction="J0" toJunction="J7" end="180" vehsPerHour="284.4538136057694" departLane="free"/>
  <flow id="JF100167" begin="120" fromJunction="J0" toJunction="J4" end="180" vehsPerHour="454.96037767786356" departLane="free"/>
  <flow id="JF100168" begin="120" fromJunction="J0" toJunction="J6" end="180" vehsPerHour="9.043852320773588" departLane="free"/>
  <flow id="JF100169" begin="120" fromJunction="J0" toJunction="J5" end="180" vehsPerHour="417.34345020178495" departLane="free"/>
  <flow id="JF100170" begin="120" fromJunction="J7" toJunction="J4" end="180" vehsPerHour="11.9209435191987" departLane="free"/>
  <flow id="JF100171" begin="120" fromJunction="J7" toJunction="J6" end="180" vehsPerHour="4.67982088200445" departLane="free"/>
  <flow id="JF100172" begin="120" fromJunction="J7" toJunction="J5" end="180" vehsPerHour="27.247967890328628" departLane="free"/>
  <flow id="JF100173" begin="120" fromJunction="J4" toJunction="J7" end="180" vehsPerHour="53.401482150442334" departLane="free"/>
  <flow id="JF100174" begin="120" fromJunction="J4" toJunction="J6" end="180" vehsPerHour="48.27474406008407" departLane="free"/>
  <flow id="JF100175" begin="120" fromJunction="J4" toJunction="J5" end="180" vehsPerHour="57.98908983734588" departLane="free"/>
  <flow id="JF100176" begin="120" fromJunction="J6" toJunction="J7" end="180" vehsPerHour="24.911924020223687" departLane="free"/>
  <flow id="JF100177" begin="120" fromJunction="J6" toJunction="J4" end="180" vehsPerHour="24.59485976610518" departLane="free"/>
  <flow id="JF100178" begin="120" fromJunction="J6" toJunction="J5" end="180" vehsPerHour="17.56215219497844" departLane="free"/>
  <flow id="JF100179" begin="120" fromJunction="J5" toJunction="J7" end="180" vehsPerHour="37.79468502081629" departLane="free"/>
  <flow id="JF100180" begin="120" fromJunction="J5" toJunction="J4" end="180" vehsPerHour="3.0789731927373993" departLane="free"/>
  <flow id="JF100181" begin="120" fromJunction="J5" toJunction="J6" end="180" vehsPerHour="68.30930664710009" departLane="free"/>
  <flow id="JF100182" begin="120" fromJunction="J7" toJunction="J3" end="180" vehsPerHour="93.51737888881716" departLane="free"/>
  <flow id="JF100183" begin="120" fromJunction="J7" toJunction="J0" end="180" vehsPerHour="112.78699837522018" departLane="free"/>
  <flow id="JF100184" begin="120" fromJunction="J4" toJunction="J3" end="180" vehsPerHour="90.40802781666521" departLane="free"/>
  <flow id="JF100185" begin="120" fromJunction="J4" toJunction="J0" end="180" vehsPerHour="104.71425114740869" departLane="free"/>
  <flow id="JF100186" begin="120" fromJunction="J6" toJunction="J3" end="180" vehsPerHour="130.98556488085222" departLane="free"/>
  <flow id="JF100187" begin="120" fromJunction="J6" toJunction="J0" end="180" vehsPerHour="43.521714479146546" departLane="free"/>
  <flow id="JF100188" begin="120" fromJunction="J5" toJunction="J3" end="180" vehsPerHour="46.08328227785347" departLane="free"/>
  <flow id="JF100189" begin="120" fromJunction="J5" toJunction="J0" end="180" vehsPerHour="137.2268684290537" departLane="free"/>
  <flow id="JF100190" begin="180" fromJunction="J3" toJunction="J0" end="240" vehsPerHour="39.602049763257" departLane="free"/>
  <flow id="JF100191" begin="180" fromJunction="J0" toJunction="J3" end="240" vehsPerHour="30.171417037255292" departLane="free"/>
  <flow id="JF100192" begin="180" fromJunction="J3" toJunction="J7" end="240" vehsPerHour="261.01603666405265" departLane="free"/>
  <flow id="JF100193" begin="180" fromJunction="J3" toJunction="J4" end="240" vehsPerHour="337.52409977075314" departLane="free"/>
  <flow id="JF100194" begin="180" fromJunction="J3" toJunction="J6" end="240" vehsPerHour="320.7911449458641" departLane="free"/>
  <flow id="JF100195" begin="180" fromJunction="J3" toJunction="J5" end="240" vehsPerHour="502.1306032521263" departLane="free"/>
  <flow id="JF100196" begin="180" fromJunction="J0" toJunction="J7" end="240" vehsPerHour="171.7286473544859" departLane="free"/>
  <flow id="JF100197" begin="180" fromJunction="J0" toJunction="J4" end="240" vehsPerHour="364.20198668098186" departLane="free"/>
  <flow id="JF100198" begin="180" fromJunction="J0" toJunction="J6" end="240" vehsPerHour="338.4678151236067" departLane="free"/>
  <flow id="JF100199" begin="180" fromJunction="J0" toJunction="J5" end="240" vehsPerHour="376.6821590904191" departLane="free"/>
  <flow id="JF100200" begin="180" fromJunction="J7" toJunction="J4" end="240" vehsPerHour="4.917742986165495" departLane="free"/>
  <flow id="JF100201" begin="180" fromJunction="J7" toJunction="J6" end="240" vehsPerHour="4.515647874801962" departLane="free"/>
  <flow id="JF100202" begin="180" fromJunction="J7" toJunction="J5" end="240" vehsPerHour="7.388432384873538" departLane="free"/>
  <flow id="JF100203" begin="180" fromJunction="J4" toJunction="J7" end="240" vehsPerHour="62.54657103774418" departLane="free"/>
  <flow id="JF100204" begin="180" fromJunction="J4" toJunction="J6" end="240" vehsPerHour="29.580355182265247" departLane="free"/>
  <flow id="JF100205" begin="180" fromJunction="J4" toJunction="J5" end="240" vehsPerHour="47.37321595248818" departLane="free"/>
  <flow id="JF100206" begin="180" fromJunction="J6" toJunction="J7" end="240" vehsPerHour="44.79556504933864" departLane="free"/>
  <flow id="JF100207" begin="180" fromJunction="J6" toJunction="J4" end="240" vehsPerHour="3.3860988035794843" departLane="free"/>
  <flow id="JF100208" begin="180" fromJunction="J6" toJunction="J5" end="240" vehsPerHour="28.946772623777935" departLane="free"/>
  <flow id="JF100209" begin="180" fromJunction="J5" toJunction="J7" end="240" vehsPerHour="63.48001315840951" departLane="free"/>
  <flow id="JF100210" begin="180" fromJunction="J5" toJunction="J4" end="240" vehsPerHour="8.656377541446618" departLane="free"/>
  <flow id="JF100211" begin="180" fromJunction="J5" toJunction="J6" end="240" vehsPerHour="27.041865895810698" departLane="free"/>
  <flow id="JF100212" begin="180" fromJunction="J7" toJunction="J3" end="240" vehsPerHour="91.41602414950722" departLane="free"/>
  <flow id="JF100213" begin="180" fromJunction="J7" toJunction="J0" end="240" vehsPerHour="53.739970176715566" departLane="free"/>
  <flow id="JF100214" begin="180" fromJunction="J4" toJunction="J3" end="240" vehsPerHour="69.99225066955646" departLane="free"/>
  <flow id="JF100215" begin="180" fromJunction="J4" toJunction="J0" end="240" vehsPerHour="4.7568347508936455" departLane="free"/>
  <flow id="JF100216" begin="180" fromJunction="J6" toJunction="J3" end="240" vehsPerHour="28.990175072262343" departLane="free"/>
  <flow id="JF100217" begin="180" fromJunction="J6" toJunction="J0" end="240" vehsPerHour="67.45876022810577" departLane="free"/>
  <flow id="JF100218" begin="180" fromJunction="J5" toJunction="J3" end="240" vehsPerHour="22.346393470191636" departLane="free"/>
  <flow id="JF100219" begin="180" fromJunction="J5" toJunction="J0" end="240" vehsPerHour="68.92303508148672" departLane="free"/>
  <flow id="JF100220" begin="240" fromJunction="J3" toJunction="J0" end="300" vehsPerHour="67.42285124207376" departLane="free"/>
  <flow id="JF100221" begin="240" fromJunction="J0" toJunction="J3" end="300" vehsPerHour="98.92844668809192" departLane="free"/>
  <flow id="JF100222" begin="240" fromJunction="J3" toJunction="J7" end="300" vehsPerHour="325.36702483550687" departLane="free"/>
  <flow id="JF100223" begin="240" fromJunction="J3" toJunction="J4" end="300" vehsPerHour="540.0806191198712" departLane="free"/>
  <flow id="JF100224" begin="240" fromJunction="J3" toJunction="J6" end="300" vehsPerHour="80.9605142268355" departLane="free"/>
  <flow id="JF100225" begin="240" fromJunction="J3" toJunction="J5" end="300" vehsPerHour="390.3663413415292" departLane="free"/>
  <flow id="JF100226" begin="240" fromJunction="J0" toJunction="J7" end="300" vehsPerHour="325.8031506947595" departLane="free"/>
  <flow id="JF100227" begin="240" fromJunction="J0" toJunction="J4" end="300" vehsPerHour="178.46343179572048" departLane="free"/>
  <flow id="JF100228" begin="240" fromJunction="J0" toJunction="J6" end="300" vehsPerHour="387.16574735255926" departLane="free"/>
  <flow id="JF100229" begin="240" fromJunction="J0" toJunction="J5" end="300" vehsPerHour="233.63135776074455" departLane="free"/>
  <flow id="JF100230" begin="240" fromJunction="J7" toJunction="J4" end="300" vehsPerHour="3.790757417626165" departLane="free"/>
  <flow id="JF100231" begin="240" fromJunction="J7" toJunction="J6" end="300" vehsPerHour="30.318141110985238" departLane="free"/>
  <flow id="JF100232" begin="240" fromJunction="J7" toJunction="J5" end="300" vehsPerHour="30.761022668692792" departLane="free"/>
  <flow id="JF100233" begin="240" fromJunction="J4" toJunction="J7" end="300" vehsPerHour="68.5480844847018" departLane="free"/>
  <flow id="JF100234" begin="240" fromJunction="J4" toJunction="J6" end="300" vehsPerHour="25.057237714560202" departLane="free"/>
  <flow id="JF100235" begin="240" fromJunction="J4" toJunction="J5" end="300" vehsPerHour="27.039318260993436" departLane="free"/>
  <flow id="JF100236" begin="240" fromJunction="J6" toJunction="J7" end="300" vehsPerHour="21.76825025473377" departLane="free"/>
  <flow id="JF100237" begin="240" fromJunction="J6" toJunction="J4" end="300" vehsPerHour="10.75951917707242" departLane="free"/>
  <flow id="JF100238" begin="240" fromJunction="J6" toJunction="J5" end="300" vehsPerHour="31.79836679008374" departLane="free"/>
  <flow id="JF100239" begin="240" fromJunction="J5" toJunction="J7" end="300" vehsPerHour="46.29128038939734" departLane="free"/>
  <flow id="JF100240" begin="240" fromJunction="J5" toJunction="J4" end="300" vehsPerHour="5.511844640280103" departLane="free"/>
  <flow id="JF100241" begin="240" fromJunction="J5" toJunction="J6" end="300" vehsPerHour="49.44125770167084" departLane="free"/>
  <flow id="JF100242" begin="240" fromJunction="J7" toJunction="J3" end="300" vehsPerHour="25.607153192308292" departLane="free"/>
  <flow id="JF100243" begin="240" fromJunction="J7" toJunction="J0" end="300" vehsPerHour="82.4176559017524" departLane="free"/>
  <flow id="JF100244" begin="240" fromJunction="J4" toJunction="J3" end="300" vehsPerHour="81.24889004561585" departLane="free"/>
  <flow id="JF100245" begin="240" fromJunction="J4" toJunction="J0" end="300" vehsPerHour="82.87785336271499" departLane="free"/>
  <flow id="JF100246" begin="240" fromJunction="J6" toJunction="J3" end="300" vehsPerHour="12.48269667257207" departLane="free"/>
  <flow id="JF100247" begin="240" fromJunction="J6" toJunction="J0" end="300" vehsPerHour="89.19267478530823" departLane="free"/>
  <flow id="JF100248" begin="240" fromJunction="J5" toJunction="J3" end="300" vehsPerHour="112.667996786125" departLane="free"/>
  <flow id="JF100249" begin="240" fromJunction="J5" toJunction="J0" end="300" vehsPerHour="82.1857798041489" departLane="free"/>
  <flow id="JF100250" begin="300" fromJunction="J3" toJunction="J0" end="360" vehsPerHour="60.09560817733696" departLane="free"/>
  <flow id="JF100251" begin="300" fromJunction="J0" toJunction="J3" end="360" vehsPerHour="9.527398495419146" departLane="free"/>
  <flow id="JF100252" begin="300" fromJunction="J3" toJunction="J7" end="360" vehsPerHour="527.4362940886049" departLane="free"/>
  <flow id="JF100253" begin="300" fromJunction="J3" toJunction="J4" end="360" vehsPerHour="200.32695345254763" departLane="free"/>
  <flow id="JF100254" begin="300" fromJunction="J3" toJunction="J6" end="360" vehsPerHour="102.27191600217976" departLane="free"/>
  <flow id="JF100255" begin="300" fromJunction="J3" toJunction="J5" end="360" vehsPerHour="545.499487793821" departLane="free"/>
  <flow id="JF100256" begin="300" fromJunction="J0" toJunction="J7" end="360" vehsPerHour="529.9823625317771" departLane="free"/>
  <flow id="JF100257" begin="300" fromJunction="J0" toJunction="J4" end="360" vehsPerHour="361.1277632060033" departLane="free"/>
  <flow id="JF100258" begin="300" fromJunction="J0" toJunction="J6" end="360" vehsPerHour="107.78400128168406" departLane="free"/>
  <flow id="JF100259" begin="300" fromJunction="J0" toJunction="J5" end="360" vehsPerHour="388.7865814598603" departLane="free"/>
  <flow id="JF100260" begin="300" fromJunction="J7" toJunction="J4" end="360" vehsPerHour="29.14238278167436" departLane="free"/>
  <flow id="JF100261" begin="300" fromJunction="J7" toJunction="J6" end="360" vehsPerHour="12.964856718250278" departLane="free"/>
  <flow id="JF100262" begin="300" fromJunction="J7" toJunction="J5" end="360" vehsPerHour="2.7338488715243927" departLane="free"/>
  <flow id="JF100263" begin="300" fromJunction="J4" toJunction="J7" end="360" vehsPerHour="6.520939244911225" departLane="free"/>
  <flow id="JF100264" begin="300" fromJunction="J4" toJunction="J6" end="360" vehsPerHour="13.777960757543694" departLane="free"/>
  <flow id="JF100265" begin="300" fromJunction="J4" toJunction="J5" end="360" vehsPerHour="53.9975034512653" departLane="free"/>
  <flow id="JF100266" begin="300" fromJunction="J6" toJunction="J7" end="360" vehsPerHour="4.50053597534434" departLane="free"/>
  <flow id="JF100267" begin="300" fromJunction="J6" toJunction="J4" end="360" vehsPerHour="14.714544969068884" departLane="free"/>
  <flow id="JF100268" begin="300" fromJunction="J6" toJunction="J5" end="360" vehsPerHour="3.41392280864245" departLane="free"/>
  <flow id="JF100269" begin="300" fromJunction="J5" toJunction="J7" end="360" vehsPerHour="9.811631952183907" departLane="free"/>
  <flow id="JF100270" begin="300" fromJunction="J5" toJunction="J4" end="360" vehsPerHour="11.715495771077912" departLane="free"/>
  <flow id="JF100271" begin="300" fromJunction="J5" toJunction="J6" end="360" vehsPerHour="13.340330884732719" departLane="free"/>
  <flow id="JF100272" begin="300" fromJunction="J7" toJunction="J3" end="360" vehsPerHour="23.642113227434297" departLane="free"/>
  <flow id="JF100273" begin="300" fromJunction="J7" toJunction="J0" end="360" vehsPerHour="31.997842550199227" departLane="free"/>
  <flow id="JF100274" begin="300" fromJunction="J4" toJunction="J3" end="360" vehsPerHour="19.132979019399617" departLane="free"/>
  <flow id="JF100275" begin="300" fromJunction="J4" toJunction="J0" end="360" vehsPerHour="75.58793567502964" departLane="free"/>
  <flow id="JF100276" begin="300" fromJunction="J6" toJunction="J3" end="360" vehsPerHour="73.83500822284944" departLane="free"/>
  <flow id="JF100277" begin="300" fromJunction="J6" toJunction="J0" end="360" vehsPerHour="103.22075364481944" departLane="free"/>
  <flow id="JF100278" begin="300" fromJunction="J5" toJunction="J3" end="360" vehsPerHour="54.882115535837805" departLane="free"/>
  <flow id="JF100279" begin="300" fromJunction="J5" toJunction="J0" end="360" vehsPerHour="94.36982557496925" departLane="free"/>
  <flow id="JF100280" begin="360" fromJunction="J3" toJunction="J0" end="420" vehsPerHour="38.92567504876235" departLane="free"/>
  <flow id="JF100281" begin="360" fromJunction="J0" toJunction="J3" end="420" vehsPerHour="97.71999814408348" departLane="free"/>
  <flow id="JF100282" begin="360" fromJunction="J3" toJunction="J7" end="420" vehsPerHour="241.93564108913557" departLane="free"/>
  <flow id="JF100283" begin="360" fromJunction="J3" toJunction="J4" end="420" vehsPerHour="543.4904764478555" departLane="free"/>
  <flow id="JF100284" begin="360" fromJunction="J3" toJunction="J6" end="420" vehsPerHour="501.95380732004674" departLane="free"/>
  <flow id="JF100285" begin="360" fromJunction="J3" toJunction="J5" end="420" vehsPerHour="274.15119811176123" departLane="free"/>
  <flow id="JF100286" begin="360" fromJunction="J0" toJunction="J7" end="420" vehsPerHour="310.71675627698266" departLane="free"/>
  <flow id="JF100287" begin="360" fromJunction="J0" toJunction="J4" end="420" vehsPerHour="14.419842107943683" departLane="free"/>
  <flow id="JF100288" begin="360" fromJunction="J0" toJunction="J6" end="420" vehsPerHour="338.3727481088413" departLane="free"/>
  <flow id="JF100289" begin="360" fromJunction="J0" toJunction="J5" end="420" vehsPerHour="295.3322419965705" departLane="free"/>
  <flow id="JF100290" begin="360" fromJunction="J7" toJunction="J4" end="420" vehsPerHour="18.73082773560081" departLane="free"/>
  <flow id="JF100291" begin="360" fromJunction="J7" toJunction="J6" end="420" vehsPerHour="8.385183647849571" departLane="free"/>
  <flow id="JF100292" begin="360" fromJunction="J7" toJunction="J5" end="420" vehsPerHour="22.82520010021067" departLane="free"/>
  <flow id="JF100293" begin="360" fromJunction="J4" toJunction="J7" end="420" vehsPerHour="24.25781227207618" departLane="free"/>
  <flow id="JF100294" begin="360" fromJunction="J4" toJunction="J6" end="420" vehsPerHour="34.48495466767659" departLane="free"/>
  <flow id="JF100295" begin="360" fromJunction="J4" toJunction="J5" end="420" vehsPerHour="59.58983536793781" departLane="free"/>
  <flow id="JF100296" begin="360" fromJunction="J6" toJunction="J7" end="420" vehsPerHour="4.162099622661958" departLane="free"/>
  <flow id="JF100297" begin="360" fromJunction="J6" toJunction="J4" end="420" vehsPerHour="27.195466328820185" departLane="free"/>
  <flow id="JF100298" begin="360" fromJunction="J6" toJunction="J5" end="420" vehsPerHour="25.64690088808711" departLane="free"/>
  <flow id="JF100299" begin="360" fromJunction="J5" toJunction="J7" end="420" vehsPerHour="40.10467690950308" departLane="free"/>
  <flow id="JF100300" begin="360" fromJunction="J5" toJunction="J4" end="420" vehsPerHour="7.149126741751072" departLane="free"/>
  <flow id="JF100301" begin="360" fromJunction="J5" toJunction="J6" end="420" vehsPerHour="45.40673629489103" departLane="free"/>
  <flow id="JF100302" begin="360" fromJunction="J7" toJunction="J3" end="420" vehsPerHour="98.35881670088456" departLane="free"/>
  <flow id="JF100303" begin="360" fromJunction="J7" toJunction="J0" end="420" vehsPerHour="68.1533608299607" departLane="free"/>
  <flow id="JF100304" begin="360" fromJunction="J4" toJunction="J3" end="420" vehsPerHour="40.030059355168504" departLane="free"/>
  <flow id="JF100305" begin="360" fromJunction="J4" toJunction="J0" end="420" vehsPerHour="19.21784157922896" departLane="free"/>
  <flow id="JF100306" begin="360" fromJunction="J6" toJunction="J3" end="420" vehsPerHour="97.84957594861166" departLane="free"/>
  <flow id="JF100307" begin="360" fromJunction="J6" toJunction="J0" end="420" vehsPerHour="88.79584126153301" departLane="free"/>
  <flow id="JF100308" begin="360" fromJunction="J5" toJunction="J3" end="420" vehsPerHour="25.19110360834153" departLane="free"/>
  <flow id="JF100309" begin="360" fromJunction="J5" toJunction="J0" end="420" vehsPerHour="94.64593587494232" departLane="free"/>
  <flow id="JF100310" begin="420" fromJunction="J3" toJunction="J0" end="480" vehsPerHour="30.460883930451487" departLane="free"/>
  <flow id="JF100311" begin="420" fromJunction="J0" toJunction="J3" end="480" vehsPerHour="123.80057562210196" departLane="free"/>
  <flow id="JF100312" begin="420" fromJunction="J3" toJunction="J7" end="480" vehsPerHour="20.69568361230752" departLane="free"/>
  <flow id="JF100313" begin="420" fromJunction="J3" toJunction="J4" end="480" vehsPerHour="342.5566984062493" departLane="free"/>
  <flow id="JF100314" begin="420" fromJunction="J3" toJunction="J6" end="480" vehsPerHour="313.85089469840824" departLane="free"/>
  <flow id="JF100315" begin="420" fromJunction="J3" toJunction="J5" end="480" vehsPerHour="391.6128217749172" departLane="free"/>
  <flow id="JF100316" begin="420" fromJunction="J0" toJunction="J7" end="480" vehsPerHour="489.5086065126193" departLane="free"/>
  <flow id="JF100317" begin="420" fromJunction="J0" toJunction="J4" end="480" vehsPerHour="27.665751757912634" departLane="free"/>
  <flow id="JF100318" begin="420" fromJunction="J0" toJunction="J6" end="480" vehsPerHour="278.3278822614975" departLane="free"/>
  <flow id="JF100319" begin="420" fromJunction="J0" toJunction="J5" end="480" vehsPerHour="235.27119182635948" departLane="free"/>
  <flow id="JF100320" begin="420" fromJunction="J7" toJunction="J4" end="480" vehsPerHour="23.759398802145423" departLane="free"/>
  <flow id="JF100321" begin="420" fromJunction="J7" toJunction="J6" end="480" vehsPerHour="33.7978280966378" departLane="free"/>
  <flow id="JF100322" begin="420" fromJunction="J7" toJunction="J5" end="480" vehsPerHour="8.703420750714892" departLane="free"/>
  <flow id="JF100323" begin="420" fromJunction="J4" toJunction="J7" end="480" vehsPerHour="43.80251456082857" departLane="free"/>
  <flow id="JF100324" begin="420" fromJunction="J4" toJunction="J6" end="480" vehsPerHour="27.82514911810019" departLane="free"/>
  <flow id="JF100325" begin="420" fromJunction="J4" toJunction="J5" end="480" vehsPerHour="38.42583410100434" departLane="free"/>
  <flow id="JF100326" begin="420" fromJunction="J6" toJunction="J7" end="480" vehsPerHour="5.789882325129471" departLane="free"/>
  <flow id="JF100327" begin="420" fromJunction="J6" toJunction="J4" end="480" vehsPerHour="12.795457679792237" departLane="free"/>
  <flow id="JF100328" begin="420" fromJunction="J6" toJunction="J5" end="480" vehsPerHour="28.317112092389586" departLane="free"/>