<?xml version="1.0" encoding="UTF-8"?>
<routes xmlns:xsi="http://www.w3.org/2001/XMLSchema-instance" xsi:noNamespaceSchemaLocation="http://sumo.dlr.de/xsd/routes_file.xsd">
  <flow id="JF112120" begin="0" fromJunction="J3" toJunction="J0" end="60" vehsPerHour="59.2040047662451" departLane="free"/>
  <flow id="JF112121" begin="0" fromJunction="J0" toJunction="J3" end="60" vehsPerHour="31.29074779973993" departLane="free"/>
  <flow id="JF112122" begin="0" fromJunction="J3" toJunction="J7" end="60" vehsPerHour="485.63364878397135" departLane="free"/>
  <flow id="JF112123" begin="0" fromJunction="J3" toJunction="J4" end="60" vehsPerHour="313.4542843766007" departLane="free"/>
  <flow id="JF112124" begin="0" fromJunction="J3" toJunction="J6" end="60" vehsPerHour="286.58515388037154" departLane="free"/>
  <flow id="JF112125" begin="0" fromJunction="J3" toJunction="J5" end="60" vehsPerHour="369.9744193040636" departLane="free"/>
  <flow id="JF112126" begin="0" fromJunction="J0" toJunction="J7" end="60" vehsPerHour="138.62375062478245" departLane="free"/>
  <flow id="JF112127" begin="0" fromJunction="J0" toJunction="J4" end="60" vehsPerHour="331.7919313512292" departLane="free"/>
  <flow id="JF112128" begin="0" fromJunction="J0" toJunction="J6" end="60" vehsPerHour="522.4889942865125" departLane="free"/>
  <flow id="JF112129" begin="0" fromJunction="J0" toJunction="J5" end="60" vehsPerHour="383.5244403324682" departLane="free"/>
  <flow id="JF112130" begin="0" fromJunction="J7" toJunction="J4" end="60" vehsPerHour="19.4111042156678" departLane="free"/>
  <flow id="JF112131" begin="0" fromJunction="J7" toJunction="J6" end="60" vehsPerHour="13.71992781933256" departLane="free"/>
  <flow id="JF112132" begin="0" fromJunction="J7" toJunction="J5" end="60" vehsPerHour="21.16243361150991" departLane="free"/>
  <flow id="JF112133" begin="0" fromJunction="J4" toJunction="J7" end="60" vehsPerHour="11.35252322836026" departLane="free"/>
  <flow id="JF112134" begin="0" fromJunction="J4" toJunction="J6" end="60" vehsPerHour="11.929860283232063" departLane="free"/>
  <flow id="JF112135" begin="0" fromJunction="J4" toJunction="J5" end="60" vehsPerHour="9.87472453384701" departLane="free"/>
  <flow id="JF112136" begin="0" fromJunction="J6" toJunction="J7" end="60" vehsPerHour="51.99987870318068" departLane="free"/>
  <flow id="JF112137" begin="0" fromJunction="J6" toJunction="J4" end="60" vehsPerHour="27.064448087395686" departLane="free"/>
  <flow id="JF112138" begin="0" fromJunction="J6" toJunction="J5" end="60" vehsPerHour="13.248281348781795" departLane="free"/>
  <flow id="JF112139" begin="0" fromJunction="J5" toJunction="J7" end="60" vehsPerHour="28.663730674612797" departLane="free"/>
  <flow id="JF112140" begin="0" fromJunction="J5" toJunction="J4" end="60" vehsPerHour="1.8076038835840873" departLane="free"/>
  <flow id="JF112141" begin="0" fromJunction="J5" toJunction="J6" end="60" vehsPerHour="45.277126907099984" departLane="free"/>
  <flow id="JF112142" begin="0" fromJunction="J7" toJunction="J3" end="60" vehsPerHour="109.68649644292233" departLane="free"/>
  <flow id="JF112143" begin="0" fromJunction="J7" toJunction="J0" end="60" vehsPerHour="100.98268826140163" departLane="free"/>
  <flow id="JF112144" begin="0" fromJunction="J4" toJunction="J3" end="60" vehsPerHour="5.925704821129694" departLane="free"/>
  <flow id="JF112145" begin="0" fromJunction="J4" toJunction="J0" end="60" vehsPerHour="43.53935954562202" departLane="free"/>
  <flow id="JF112146" begin="0" fromJunction="J6" toJunction="J3" end="60" vehsPerHour="72.02367059546627" departLane="free"/>
  <flow id="JF112147" begin="0" fromJunction="J6" toJunction="J0" end="60" vehsPerHour="108.54494496967503" departLane="free"/>
  <flow id="JF112148" begin="0" fromJunction="J5" toJunction="J3" end="60" vehsPerHour="111.35882596353511" departLane="free"/>
  <flow id="JF112149" begin="0" fromJunction="J5" toJunction="J0" end="60" vehsPerHour="50.80029715240432" departLane="free"/>
  <flow id="JF112150" begin="60" fromJunction="J3" toJunction="J0" end="120" vehsPerHour="37.9172637367337" departLane="free"/>
  <flow id="JF112151" begin="60" fromJunction="J0" toJunction="J3" end="120" vehsPerHour="13.6473660887484" departLane="free"/>
  <flow id="JF112152" begin="60" fromJunction="J3" toJunction="J7" end="120" vehsPerHour="252.77029564479434" departLane="free"/>
  <flow id="JF112153" begin="60" fromJunction="J3" toJunction="J4" end="120" vehsPerHour="549.280354069325" departLane="free"/>
  <flow id="JF112154" begin="60" fromJunction="J3" toJunction="J6" end="120" vehsPerHour="61.51048678216318" departLane="free"/>
  <flow id="JF112155" begin="60" fromJunction="J3" toJunction="J5" end="120" vehsPerHour="374.61463319333023" departLane="free"/>
  <flow id="JF112156" begin="60" fromJunction="J0" toJunction="J7" end="120" vehsPerHour="217.18373446556853" departLane="free"/>
  <flow id="JF112157" begin="60" fromJunction="J0" toJunction="J4" end="120" vehsPerHour="1.1513689873044848" departLane="free"/>
  <flow id="JF112158" begin="60" fromJunction="J0" toJunction="J6" end="120" vehsPerHour="508.33662505081725" departLane="free"/>
  <flow id="JF112159" begin="60" fromJunction="J0" toJunction="J5" end="120" vehsPerHour="219.35337556451998" departLane="free"/>
  <flow id="JF112160" begin="60" fromJunction="J7" toJunction="J4" end="120" vehsPerHour="6.435821013749006" departLane="free"/>
  <flow id="JF112161" begin="60" fromJunction="J7" toJunction="J6" end="120" vehsPerHour="24.03238991463087" departLane="free"/>
  <flow id="JF112162" begin="60" fromJunction="J7" toJunction="J5" end="120" vehsPerHour="26.10622384762599" departLane="free"/>
  <flow id="JF112163" begin="60" fromJunction="J4" toJunction="J7" end="120" vehsPerHour="60.6222410843326" departLane="free"/>
  <flow id="JF112164" begin="60" fromJunction="J4" toJunction="J6" end="120" vehsPerHour="5.723947819098321" departLane="free"/>
  <flow id="JF112165" begin="60" fromJunction="J4" toJunction="J5" end="120" vehsPerHour="30.728101074756154" departLane="free"/>
  <flow id="JF112166" begin="60" fromJunction="J6" toJunction="J7" end="120" vehsPerHour="15.035268605939802" departLane="free"/>
  <flow id="JF112167" begin="60" fromJunction="J6" toJunction="J4" end="120" vehsPerHour="23.766207442606813" departLane="free"/>
  <flow id="JF112168" begin="60" fromJunction="J6" toJunction="J5" end="120" vehsPerHour="7.2171351835342925" departLane="free"/>
  <flow id="JF112169" begin="60" fromJunction="J5" toJunction="J7" end="120" vehsPerHour="46.36740710311988" departLane="free"/>
  <flow id="JF112170" begin="60" fromJunction="J5" toJunction="J4" end="120" vehsPerHour="25.43541803171586" departLane="free"/>
  <flow id="JF112171" begin="60" fromJunction="J5" toJunction="J6" end="120" vehsPerHour="62.42234146844422" departLane="free"/>
  <flow id="JF112172" begin="60" fromJunction="J7" toJunction="J3" end="120" vehsPerHour="57.307751542130745" departLane="free"/>
  <flow id="JF112173" begin="60" fromJunction="J7" toJunction="J0" end="120" vehsPerHour="32.93065670223463" departLane="free"/>
  <flow id="JF112174" begin="60" fromJunction="J4" toJunction="J3" end="120" vehsPerHour="130.2100743704927" departLane="free"/>
  <flow id="JF112175" begin="60" fromJunction="J4" toJunction="J0" end="120" vehsPerHour="55.6042984201221" departLane="free"/>
  <flow id="JF112176" begin="60" fromJunction="J6" toJunction="J3" end="120" vehsPerHour="79.23557901526553" departLane="free"/>
  <flow id="JF112177" begin="60" fromJunction="J6" toJunction="J0" end="120" vehsPerHour="51.22191300935017" departLane="free"/>
  <flow id="JF112178" begin="60" fromJunction="J5" toJunction="J3" end="120" vehsPerHour="8.654064020266018" departLane="free"/>
  <flow id="JF112179" begin="60" fromJunction="J5" toJunction="J0" end="120" vehsPerHour="52.95770054039457" departLane="free"/>
  <flow id="JF112180" begin="120" fromJunction="J3" toJunction="J0" end="180" vehsPerHour="42.9640955044532" departLane="free"/>
  <flow id="JF112181" begin="120" fromJunction="J0" toJunction="J3" end="180" vehsPerHour="24.472912351594736" departLane="free"/>
  <flow id="JF112182" begin="120" fromJunction="J3" toJunction="J7" end="180" vehsPerHour="25.651567765588283" departLane="free"/>
  <flow id="JF112183" begin="120" fromJunction="J3" toJunction="J4" end="180" vehsPerHour="532.2317804323276" departLane="free"/>
  <flow id="JF112184" begin="120" fromJunction="J3" toJunction="J6" end="180" vehsPerHour="459.53498622693735" departLane="free"/>
  <flow id="JF112185" begin="120" fromJunction="J3" toJunction="J5" end="180" vehsPerHour="445.74278964621425" departLane="free"/>
  <flow id="JF112186" begin="120" fromJunction="J0" toJunction="J7" end="180" vehsPerHour="209.9164065550184" departLane="free"/>
  <flow id="JF112187" begin="120" fromJunction="J0" toJunction="J4" end="180" vehsPerHour="430.66756566548537" departLane="free"/>
  <flow id="JF112188" begin="120" fromJunction="J0" toJunction="J6" end="180" vehsPerHour="31.63673426658804" departLane="free"/>
  <flow id="JF112189" begin="120" fromJunction="J0" toJunction="J5" end="180" vehsPerHour="104.86204034533426" departLane="free"/>
  <flow id="JF112190" begin="120" fromJunction="J7" toJunction="J4" end="180" vehsPerHour="12.028976944308138" departLane="free"/>
  <flow id="JF112191" begin="120" fromJunction="J7" toJunction="J6" end="180" vehsPerHour="0.9263857753756216" departLane="free"/>
  <flow id="JF112192" begin="120" fromJunction="J7" toJunction="J5" end="180" vehsPerHour="9.261146826401626" departLane="free"/>
  <flow id="JF112193" begin="120" fromJunction="J4" toJunction="J7" end="180" vehsPerHour="37.99099454720408" departLane="free"/>
  <flow id="JF112194" begin="120" fromJunction="J4" toJunction="J6" end="180" vehsPerHour="44.43055941646974" departLane="free"/>
  <flow id="JF112195" begin="120" fromJunction="J4" toJunction="J5" end="180" vehsPerHour="15.370149642993182" departLane="free"/>
  <flow id="JF112196" begin="120" fromJunction="J6" toJunction="J7" end="180" vehsPerHour="37.551165807515304" departLane="free"/>
  <flow id="JF112197" begin="120" fromJunction="J6" toJunction="J4" end="180" vehsPerHour="17.235496770714686" departLane="free"/>
  <flow id="JF112198" begin="120" fromJunction="J6" toJunction="J5" end="180" vehsPerHour="10.482208548710249" departLane="free"/>
  <flow id="JF112199" begin="120" fromJunction="J5" toJunction="J7" end="180" vehsPerHour="49.91035618566804" departLane="free"/>
  <flow id="JF112200" begin="120" fromJunction="J5" toJunction="J4" end="180" vehsPerHour="14.231315714351764" departLane="free"/>
  <flow id="JF112201" begin="120" fromJunction="J5" toJunction="J6" end="180" vehsPerHour="56.47726654843542" departLane="free"/>
  <flow id="JF112202" begin="120" fromJunction="J7" toJunction="J3" end="180" vehsPerHour="38.99365226792125" departLane="free"/>
  <flow id="JF112203" begin="120" fromJunction="J7" toJunction="J0" end="180" vehsPerHour="27.04704042864322" departLane="free"/>
  <flow id="JF112204" begin="120" fromJunction="J4" toJunction="J3" end="180" vehsPerHour="42.07896267030838" departLane="free"/>
  <flow id="JF112205" begin="120" fromJunction="J4" toJunction="J0" end="180" vehsPerHour="72.1773180853255" departLane="free"/>
  <flow id="JF112206" begin="120" fromJunction="J6" toJunction="J3" end="180" vehsPerHour="110.31050850690674" departLane="free"/>
  <flow id="JF112207" begin="120" fromJunction="J6" toJunction="J0" end="180" vehsPerHour="8.49841769417997" departLane="free"/>
  <flow id="JF112208" begin="120" fromJunction="J5" toJunction="J3" end="180" vehsPerHour="129.27811896062627" departLane="free"/>
  <flow id="JF112209" begin="120" fromJunction="J5" toJunction="J0" end="180" vehsPerHour="45.734013492729524" departLane="free"/>
  <flow id="JF112210" begin="180" fromJunction="J3" toJunction="J0" end="240" vehsPerHour="7.535107485976111" departLane="free"/>
  <flow id="JF112211" begin="180" fromJunction="J0" toJunction="J3" end="240" vehsPerHour="45.88505381357984" departLane="free"/>
  <flow id="JF112212" begin="180" fromJunction="J3" toJunction="J7" end="240" vehsPerHour="517.5427499012116" departLane="free"/>
  <flow id="JF112213" begin="180" fromJunction="J3" toJunction="J4" end="240" vehsPerHour="7.006545108781257" departLane="free"/>
  <flow id="JF112214" begin="180" fromJunction="J3" toJunction="J6" end="240" vehsPerHour="92.40196307228202" departLane="free"/>
  <flow id="JF112215" begin="180" fromJunction="J3" toJunction="J5" end="240" vehsPerHour="161.54541596443778" departLane="free"/>
  <flow id="JF112216" begin="180" fromJunction="J0" toJunction="J7" end="240" vehsPerHour="80.18706151115494" departLane="free"/>
  <flow id="JF112217" begin="180" fromJunction="J0" toJunction="J4" end="240" vehsPerHour="458.91793068549987" departLane="free"/>
  <flow id="JF112218" begin="180" fromJunction="J0" toJunction="J6" end="240" vehsPerHour="452.35706697564865" departLane="free"/>
  <flow id="JF112219" begin="180" fromJunction="J0" toJunction="J5" end="240" vehsPerHour="254.8501171130884" departLane="free"/>
  <flow id="JF112220" begin="180" fromJunction="J7" toJunction="J4" end="240" vehsPerHour="24.630325181659924" departLane="free"/>
  <flow id="JF112221" begin="180" fromJunction="J7" toJunction="J6" end="240" vehsPerHour="32.55237370628413" departLane="free"/>
  <flow id="JF112222" begin="180" fromJunction="J7" toJunction="J5" end="240" vehsPerHour="10.103967552081285" departLane="free"/>
  <flow id="JF112223" begin="180" fromJunction="J4" toJunction="J7" end="240" vehsPerHour="12.022309135416343" departLane="free"/>
  <flow id="JF112224" begin="180" fromJunction="J4" toJunction="J6" end="240" vehsPerHour="23.339527423467395" departLane="free"/>
  <flow id="JF112225" begin="180" fromJunction="J4" toJunction="J5" end="240" vehsPerHour="13.920882385746198" departLane="free"/>
  <flow id="JF112226" begin="180" fromJunction="J6" toJunction="J7" end="240" vehsPerHour="3.0702036355333178" departLane="free"/>
  <flow id="JF112227" begin="180" fromJunction="J6" toJunction="J4" end="240" vehsPerHour="13.746484447148047" departLane="free"/>
  <flow id="JF112228" begin="180" fromJunction="J6" toJunction="J5" end="240" vehsPerHour="21.780399957150806" departLane="free"/>
  <flow id="JF112229" begin="180" fromJunction="J5" toJunction="J7" end="240" vehsPerHour="64.15563971288928" departLane="free"/>
  <flow id="JF112230" begin="180" fromJunction="J5" toJunction="J4" end="240" vehsPerHour="8.23373302724874" departLane="free"/>
  <flow id="JF112231" begin="180" fromJunction="J5" toJunction="J6" end="240" vehsPerHour="21.64747032613028" departLane="free"/>
  <flow id="JF112232" begin="180" fromJunction="J7" toJunction="J3" end="240" vehsPerHour="100.0067684350998" departLane="free"/>
  <flow id="JF112233" begin="180" fromJunction="J7" toJunction="J0" end="240" vehsPerHour="68.24273556773421" departLane="free"/>
  <flow id="JF112234" begin="180" fromJunction="J4" toJunction="J3" end="240" vehsPerHour="117.37214068202968" departLane="free"/>
  <flow id="JF112235" begin="180" fromJunction="J4" toJunction="J0" end="240" vehsPerHour="25.65330690829094" departLane="free"/>
  <flow id="JF112236" begin="180" fromJunction="J6" toJunction="J3" end="240" vehsPerHour="34.06048676650576" departLane="free"/>
  <flow id="JF112237" begin="180" fromJunction="J6" toJunction="J0" end="240" vehsPerHour="86.68025228568057" departLane="free"/>
  <flow id="JF112238" begin="180" fromJunction="J5" toJunction="J3" end="240" vehsPerHour="60.496963919457876" departLane="free"/>
  <flow id="JF112239" begin="180" fromJunction="J5" toJunction="J0" end="240" vehsPerHour="63.15955448807099" departLane="free"/>
  <flow id="JF112240" begin="240" fromJunction="J3" toJunction="J0" end="300" vehsPerHour="45.159310325156866" departLane="free"/>
  <flow id="JF112241" begin="240" fromJunction="J0" toJunction="J3" end="300" vehsPerHour="27.75357483259073" departLane="free"/>
  <flow id="JF112242" begin="240" fromJunction="J3" toJunction="J7" end="300" vehsPerHour="373.00750026319963" departLane="free"/>
  <flow id="JF112243" begin="240" fromJunction="J3" toJunction="J4" end="300" vehsPerHour="52.70724640871713" departLane="free"/>
  <flow id="JF112244" begin="240" fromJunction="J3" toJunction="J6" end="300" vehsPerHour="286.43521238653517" departLane="free"/>
  <flow id="JF112245" begin="240" fromJunction="J3" toJunction="J5" end="300" vehsPerHour="9.977947128831794" departLane="free"/>
  <flow id="JF112246" begin="240" fromJunction="J0" toJunction="J7" end="300" vehsPerHour="372.8191310358671" departLane="free"/>
  <flow id="JF112247" begin="240" fromJunction="J0" toJunction="J4" end="300" vehsPerHour="130.4971673987424" departLane="free"/>
  <flow id="JF112248" begin="240" fromJunction="J0" toJunction="J6" end="300" vehsPerHour="469.55951333657833" departLane="free"/>
  <flow id="JF112249" begin="240" fromJunction="J0" toJunction="J5" end="300" vehsPerHour="11.025325096820657" departLane="free"/>
  <flow id="JF112250" begin="240" fromJunction="J7" toJunction="J4" end="300" vehsPerHour="0.8451996892649696" departLane="free"/>
  <flow id="JF112251" begin="240" fromJunction="J7" toJunction="J6" end="300" vehsPerHour="13.008224883908872" departLane="free"/>
  <flow id="JF112252" begin="240" fromJunction="J7" toJunction="J5" end="300" vehsPerHour="20.59651638435153" departLane="free"/>
  <flow id="JF112253" begin="240" fromJunction="J4" toJunction="J7" end="300" vehsPerHour="43.40286689788597" departLane="free"/>
  <flow id="JF112254" begin="240" fromJunction="J4" toJunction="J6" end="300" vehsPerHour="47.35927626102565" departLane="free"/>
  <flow id="JF112255" begin="240" fromJunction="J4" toJunction="J5" end="300" vehsPerHour="40.002992358522285" departLane="free"/>
  <flow id="JF112256" begin="240" fromJunction="J6" toJunction="J7" end="300" vehsPerHour="53.08254268760965" departLane="free"/>
  <flow id="JF112257" begin="240" fromJunction="J6" toJunction="J4" end="300" vehsPerHour="14.499587901075062" departLane="free"/>
  <flow id="JF112258" begin="240" fromJunction="J6" toJunction="J5" end="300" vehsPerHour="11.899393462612188" departLane="free"/>
  <flow id="JF112259" begin="240" fromJunction="J5" toJunction="J7" end="300" vehsPerHour="11.386737882792842" departLane="free"/>
  <flow id="JF112260" begin="240" fromJunction="J5" toJunction="J4" end="300" vehsPerHour="16.26872113097995" departLane="free"/>
  <flow id="JF112261" begin="240" fromJunction="J5" toJunction="J6" end="300" vehsPerHour="47.265234846797085" departLane="free"/>
  <flow id="JF112262" begin="240" fromJunction="J7" toJunction="J3" end="300" vehsPerHour="134.34899208943744" departLane="free"/>
  <flow id="JF112263" begin="240" fromJunction="J7" toJunction="J0" end="300" vehsPerHour="32.7924022101546" departLane="free"/>
  <flow id="JF112264" begin="240" fromJunction="J4" toJunction="J3" end="300" vehsPerHour="7.076113371722458" departLane="free"/>
  <flow id="JF112265" begin="240" fromJunction="J4" toJunction="J0" end="300" vehsPerHour="73.02604822218534" departLane="free"/>
  <flow id="JF112266" begin="240" fromJunction="J6" toJunction="J3" end="300" vehsPerHour="6.3999734211374015" departLane="free"/>
  <flow id="JF112267" begin="240" fromJunction="J6" toJunction="J0" end="300" vehsPerHour="63.59932109847977" departLane="free"/>
  <flow id="JF112268" begin="240" fromJunction="J5" toJunction="J3" end="300" vehsPerHour="18.249308962350586" departLane="free"/>
  <flow id="JF112269" begin="240" fromJunction="J5" toJunction="J0" end="300" vehsPerHour="50.68162628525093" departLane="free"/>
  <flow id="JF112270" begin="300" fromJunction="J3" toJunction="J0" end="360" vehsPerHour="19.14368635666298" departLane="free"/>
  <flow id="JF112271" begin="300" fromJunction="J0" toJunction="J3" end="360" vehsPerHour="102.73176467115725" departLane="free"/>
  <flow id="JF112272" begin="300" fromJunction="J3" toJunction="J7" end="360" vehsPerHour="164.99469673895078" departLane="free"/>
  <flow id="JF112273" begin="300" fromJunction="J3" toJunction="J4" end="360" vehsPerHour="341.2578620230596" departLane="free"/>
  <flow id="JF112274" begin="300" fromJunction="J3" toJunction="J6" end="360" vehsPerHour="340.76707315920464" departLane="free"/>
  <flow id="JF112275" begin="300" fromJunction="J3" toJunction="J5" end="360" vehsPerHour="213.92138777195493" departLane="free"/>
  <flow id="JF112276" begin="300" fromJunction="J0" toJunction="J7" end="360" vehsPerHour="191.77267919207662" departLane="free"/>
  <flow id="JF112277" begin="300" fromJunction="J0" toJunction="J4" end="360" vehsPerHour="198.17497331264184" departLane="free"/>
  <flow id="JF112278" begin="300" fromJunction="J0" toJunction="J6" end="360" vehsPerHour="215.6954788891619" departLane="free"/>
  <flow id="JF112279" begin="300" fromJunction="J0" toJunction="J5" end="360" vehsPerHour="326.3968696565087" departLane="free"/>
  <flow id="JF112280" begin="360" fromJunction="J3" toJunction="J0" end="420" vehsPerHour="42.44201122750133" departLane="free"/>
  <flow id="JF112281" begin="360" fromJunction="J0" toJunction="J3" end="420" vehsPerHour="0.15607739558399722" departLane="free"/>
  <flow id="JF112282" begin="360" fromJunction="J3" toJunction="J7" end="420" vehsPerHour="331.7807026954775" departLane="free"/>
  <flow id="JF112283" begin="360" fromJunction="J3" toJunction="J4" end="420" vehsPerHour="384.7814214221757" departLane="free"/>
  <flow id="JF112284" begin="360" fromJunction="J3" toJunction="J6" end="420" vehsPerHour="488.57313799347304" departLane="free"/>
  <flow id="JF112285" begin="360" fromJunction="J3" toJunction="J5" end="420" vehsPerHour="444.1068577045911" departLane="free"/>
  <flow id="JF112286" begin="360" fromJunction="J0" toJunction="J7" end="420" vehsPerHour="437.357427172725" departLane="free"/>
  <flow id="JF112287" begin="360" fromJunction="J0" toJunction="J4" end="420" vehsPerHour="149.40804741516905" departLane="free"/>
  <flow id="JF112288" begin="360" fromJunction="J0" toJunction="J6" end="420" vehsPerHour="313.6929107900329" departLane="free"/>
  <flow id="JF112289" begin="360" fromJunction="J0" toJunction="J5" end="420" vehsPerHour="368.2768137229474" departLane="free"/>
  <flow id="JF112290" begin="420" fromJunction="J3" toJunction="J0" end="480" vehsPerHour="21.606597078232944" departLane="free"/>
  <flow id="JF112291" begin="420" fromJunction="J0" toJunction="J3" end="480" vehsPerHour="77.93508978802153" departLane="free"/>
  <flow id="JF112292" begin="420" fromJunction="J3" toJunction="J7" end="480" vehsPerHour="203.51035275444835" departLane="free"/>
  <flow id="JF112293" begin="420" fromJunction="J3" toJunction="J4" end="480" vehsPerHour="11.583556723160429" departLane="free"/>
  <flow id="JF112294" begin="420" fromJunction="J3" toJunction="J6" end="480" vehsPerHour="243.01359918277393" departLane="free"/>
  <flow id="JF112295" begin="420" fromJunction="J3" toJunction="J5" end="480" vehsPerHour="404.631048563307" departLane="free"/>
  <flow id="JF112296" begin="420" fromJunction="J0" toJunction="J7" end="480" vehsPerHour="362.56944379411885" departLane="free"/>
  <flow id="JF112297" begin="420" fromJunction="J0" toJunction="J4" end="480" vehsPerHour="456.9481006548504" departLane="free"/>
  <flow id="JF112298" begin="420" fromJunction="J0" toJunction="J6" end="480" vehsPerHour="15.513731389520837" departLane="free"/>
  <flow id="JF112299" begin="420" fromJunction="J0" toJunction="J5" end="480" vehsPerHour="231.61704925964082" departLane="free"/>
  <flow id="JF112300" begin="420" fromJunction="J7" toJunction="J4" end="480" vehsPerHour="0.1600930594690215" departLane="free"/>
  <flow id="JF112301" begin="420" fromJunction="J7" toJunction="J6" end="480" vehsPerHour="18.111357628840615" departLane="free"/>
  <flow id="JF112302" begin="420" fromJunction="J7" toJunction="J5" end="480" vehsPerHour="28.848633429375774" departLane="free"/>
  <flow id="JF112303" begin="420" fromJunction="J4" toJunction="J7" end="480" vehsPerHour="38.901080595084416" departLane="free"/>
  <flow id="JF112304" begin="420" fromJunction="J4" toJunction="J6" end="480" vehsPerHour="20.170238600075606" departLane="free"/>
  <flow id="JF112305" begin="420" fromJunction="J4" toJunction="J5" end="480" vehsPerHour="58.37370648876856" departLane="free"/>
  <flow id="JF112306" begin="420" fromJunction="J6" toJunction="J7" end="480" vehsPerHour="26.34968272611423" departLane="free"/>
  <flow id="JF112307" begin="420" fromJunction="J6" toJunction="J4" end="480" vehsPerHour="7.668816377882326" departLane="free"/>
  <flow id="JF112308" begin="420" fromJunction="J6" toJunction="J5" end="480" vehsPerHour="16.978459296852" departLane="free"/>
  <flow id="JF112309" begin="420" fromJunction="J5" toJunction="J7" end="480" vehsPerHour="24.682171810113466" departLane="free"/>
  <flow id="JF112310" begin="420" fromJunction="J5" toJunction="J4" end="480" vehsPerHour="19.63098549943393" departLane="free"/>
  <flow id="JF112311" begin="420" fromJunction="J5" toJunction="J6" end="480" vehsPerHour="44.95080954943774" departLane="free"/>
  <flow id="JF112312" begin="420" fromJunction="J7" toJunction="J3" end="480" vehsPerHour="120.87302802069722" departLane="free"/>
  <flow id="JF112313" begin="420" fromJunction="J7" toJunction="J0" end="480" vehsPerHour="9.99232873506388" departLane="free"/>
  <flow id="JF112314" begin="420" fromJunction="J4" toJunction="J3" end="480" vehsPerHour="34.60069085372612" departLane="free"/>
  <flow id="JF112315" begin="420" fromJunction="J4" toJunction="J0" end="480" vehsPerHour="29.119244625750095" departLane="free"/>
  <flow id="JF112316" begin="420" fromJunction="J6" toJunction="J3" end="480" vehsPerHour="54.2504883488859" departLane="free"/>
  <flow id="JF112317" begin="420" fromJunction="J6" toJunction="J0" end="480" vehsPerHour="93.2883715892926" departLane="free"/>
  <flow id="JF112318" begin="420" fromJunction="J5" toJunction="J3" end="480" vehsPerHour="135.6241385758809" departLane="free"/>
  <flow id="JF112319" begin="420" fromJunction="J5" toJunction="J0" end="480" vehsPerHour="123.1354480271007" departLane="free"/>
  <flow id="JF112320" begin="480" fromJunction="J3" toJunction="J0" end="540" vehsPerHour="52.27700136126106" departLane="free"/>
  <flow id="JF112321" begin="480" fromJunction="J0" toJunction="J3" end="540" vehsPerHour="26.78474594357446" departLane="free"/>
  <flow id="JF112322" begin="480" fromJunction="J3" toJunction="J7" end="540" vehsPerHour="176.02052696331262" departLane="free"/>
  <flow id="JF112323" begin="480" fromJunction="J3" toJunction="J4" end="540" vehsPerHour="309.6949631787235" departLane="free"/>
  <flow id="JF112324" begin="480" fromJunction="J3" toJunction="J6" end="540" vehsPerHour="513.6117751157977" departLane="free"/>
  <flow id="JF112325" begin="480" fromJunction="J3" toJunction="J5" end="540" vehsPerHour="445.2383610962965" departLane="free"/>
  <flow id="JF112326" begin="480" fromJunction="J0" toJunction="J7" end="540" vehsPerHour="304.94465844358626" departLane="free"/>
  <flow id="JF112327" begin="480" fromJunction="J0" toJunction="J4" end="540" vehsPerHour="492.6628875022971" departLane="free"/>
  <flow id="JF112328" begin="480" fromJunction="J0" toJunction="J6" end="540" vehsPerHour="62.54470199954518" departLane="free"/>
  <flow id="JF112329" begin="480" fromJunction="J0" toJunction="J5" end="540" vehsPerHour="38.005251703035874" departLane="free"/>
  <flow id="JF112330" begin="480" fromJunction="J7" toJunction="J4" end="540" vehsPerHour="24.494031051208037" departLane="free"/>
  <flow id="JF112331" begin="480" fromJunction="J7" toJunction="J6" end="540" vehsPerHour="7.960421756217263" departLane="free"/>
  <flow id="JF112332" begin="480" fromJunction="J7" toJunction="J5" end="540" vehsPerHour="30.713879268450953" departLane="free"/>
  <flow id="JF112333" begin="480" fromJunction="J4" toJunction="J7" end="540" vehsPerHour="34.348597233474194" departLane="free"/>
  <flow id="JF112334" begin="480" fromJunction="J4" toJunction="J6" end="540" vehsPerHour="65.43232358248383" departLane="free"/>
  <flow id="JF112335" begin="480" fromJunction="J4" toJunction="J5" end="540" vehsPerHour="11.609312357558593" departLane="free"/>
  <flow id="JF112336" begin="480" fromJunction="J6" toJunction="J7" end="540" vehsPerHour="53.829129540669214" departLane="free"/>
  <flow id="JF112337" begin="480" fromJunction="J6" toJunction="J4" end="540" vehsPerHour="3.662140625104346" departLane="free"/>
  <flow id="JF112338" begin="480" fromJunction="J6" toJunction="J5" end="540" vehsPerHour="15.080764673121427" departLane="free"/>
  <flow id="JF112339" begin="480" fromJunction="J5" toJunction="J7" end="540" vehsPerHour="26.032106048288465" departLane="free"/>
  <flow id="JF112340" begin="480" fromJunction="J5" toJunction="J4" end="540" vehsPerHour="32.6951160529926" departLane="free"/>
  <flow id="JF112341" begin="480" fromJunction="J5" toJunction="J6" end="540" vehsPerHour="1.7935805243740102" departLane="free"/>
  <flow id="JF112342" begin="480" fromJunction="J7" toJunction="J3" end="540" vehsPerHour="42.438746931972084" departLane="free"/>
  <flow id="JF112343" begin="480" fromJunction="J7" toJunction="J0" end="540" vehsPerHour="20.71742113155355" departLane="free"/>
  <flow id="JF112344" begin="480" fromJunction="J4" toJunction="J3" end="540" vehsPerHour="70.32891100200607" departLane="free"/>
  <flow id="JF112345" begin="480" fromJunction="J4" toJunction="J0" end="540" vehsPerHour="109.21724950856917" departLane="free"/>
  <flow id="JF112346" begin="480" fromJunction="J6" toJunction="J3" end="540" vehsPerHour="134.90507939728826" departLane="free"/>
  <flow id="JF112347" begin="480" fromJunction="J6" toJunction="J0" end="540" vehsPerHour="49.95363351216897" departLane="free"/>
  <flow id="JF112348" begin="480" fromJunction="J5" toJunction="J3" end="540" vehsPerHour="103.75847589938301" departLane="free"/>