<?xml version="1.0" encoding="UTF-8"?>
<routes xmlns:xsi="http://www.w3.org/2001/XMLSchema-instance" xsi:noNamespaceSchemaLocation="http://sumo.dlr.de/xsd/routes_file.xsd">
  <flow id="JF0" begin="0" fromJunction="J0" toJunction="J3" end="360" vehsPerHour="6.886695910051668" departLane="free"/>
  <flow id="JF1" begin="0" fromJunction="J0" toJunction="J4" end="360" vehsPerHour="31.03251097089562" departLane="free"/>
  <flow id="JF2" begin="0" fromJunction="J0" toJunction="J6" end="360" vehsPerHour="23.899252576494575" departLane="free"/>
  <flow id="JF3" begin="0" fromJunction="J0" toJunction="J7" end="360" vehsPerHour="115.45762960778187" departLane="free"/>
  <flow id="JF4" begin="0" fromJunction="J3" toJunction="J0" end="360" vehsPerHour="29.5953591716125" departLane="free"/>
  <flow id="JF5" begin="0" fromJunction="J3" toJunction="J4" end="360" vehsPerHour="106.50570170156536" departLane="free"/>
  <flow id="JF6" begin="0" fromJunction="J3" toJunction="J6" end="360" vehsPerHour="77.4838418804489" departLane="free"/>
  <flow id="JF7" begin="0" fromJunction="J3" toJunction="J7" end="360" vehsPerHour="9.283726302683382" departLane="free"/>
  <flow id="JF8" begin="0" fromJunction="J4" toJunction="J0" end="360" vehsPerHour="1.2509505519686808" departLane="free"/>
  <flow id="JF9" begin="0" fromJunction="J4" toJunction="J3" end="360" vehsPerHour="56.514551034341075" departLane="free"/>
  <flow id="JF10" begin="0" fromJunction="J4" toJunction="J6" end="360" vehsPerHour="0.6418411120493903" departLane="free"/>
  <flow id="JF11" begin="0" fromJunction="J4" toJunction="J7" end="360" vehsPerHour="12.251892260825132" departLane="free"/>
  <flow id="JF12" begin="0" fromJunction="J5" toJunction="J0" end="360" vehsPerHour="14.303442669712094" departLane="free"/>
  <flow id="JF13" begin="0" fromJunction="J5" toJunction="J3" end="360" vehsPerHour="48.967767181624595" departLane="free"/>
  <flow id="JF14" begin="0" fromJunction="J5" toJunction="J6" end="360" vehsPerHour="61.798239753600654" departLane="free"/>
  <flow id="JF15" begin="0" fromJunction="J5" toJunction="J7" end="360" vehsPerHour="59.65278994400197" departLane="free"/>
  <flow id="JF16" begin="0" fromJunction="J6" toJunction="J0" end="360" vehsPerHour="24.65853962170703" departLane="free"/>
  <flow id="JF17" begin="0" fromJunction="J6" toJunction="J3" end="360" vehsPerHour="48.28470086030471" departLane="free"/>
  <flow id="JF18" begin="0" fromJunction="J6" toJunction="J5" end="360" vehsPerHour="54.51073155283783" departLane="free"/>
  <flow id="JF19" begin="0" fromJunction="J6" toJunction="J7" end="360" vehsPerHour="53.837406350529456" departLane="free"/>
  <flow id="JF20" begin="0" fromJunction="J7" toJunction="J0" end="360" vehsPerHour="40.82287982794283" departLane="free"/>
  <flow id="JF21" begin="0" fromJunction="J7" toJunction="J3" end="360" vehsPerHour="16.937608525795593" departLane="free"/>
  <flow id="JF22" begin="0" fromJunction="J7" toJunction="J4" end="360" vehsPerHour="9.001179289829013" departLane="free"/>
  <flow id="JF23" begin="0" fromJunction="J7" toJunction="J5" end="360" vehsPerHour="22.76834690011541" departLane="free"/>
  <flow id="JF24" begin="0" fromJunction="J7" toJunction="J6" end="360" vehsPerHour="1.672248294163415" departLane="free"/>
  <flow id="JF25" begin="360" fromJunction="J0" toJunction="J3" end="720" vehsPerHour="131.6578054201641" departLane="free"/>
  <flow id="JF26" begin="360" fromJunction="J0" toJunction="J5" end="720" vehsPerHour="94.67327522251077" departLane="free"/>
  <flow id="JF27" begin="360" fromJunction="J0" toJunction="J6" end="720" vehsPerHour="96.99809811771203" departLane="free"/>
  <flow id="JF28" begin="360" fromJunction="J0" toJunction="J7" end="720" vehsPerHour="91.2391847455525" departLane="free"/>
  <flow id="JF29" begin="360" fromJunction="J3" toJunction="J0" end="720" vehsPerHour="42.191177566979036" departLane="free"/>
  <flow id="JF30" begin="360" fromJunction="J3" toJunction="J4" end="720" vehsPerHour="86.48246631130269" departLane="free"/>
  <flow id="JF31" begin="360" fromJunction="J3" toJunction="J5" end="720" vehsPerHour="127.68133846689358" departLane="free"/>
  <flow id="JF32" begin="360" fromJunction="J3" toJunction="J6" end="720" vehsPerHour="91.17862345472852" departLane="free"/>
  <flow id="JF33" begin="360" fromJunction="J3" toJunction="J7" end="720" vehsPerHour="21.92438913849866" departLane="free"/>
  <flow id="JF34" begin="360" fromJunction="J4" toJunction="J0" end="720" vehsPerHour="31.36523562365395" departLane="free"/>
  <flow id="JF35" begin="360" fromJunction="J4" toJunction="J3" end="720" vehsPerHour="45.7146052685343" departLane="free"/>
  <flow id="JF36" begin="360" fromJunction="J4" toJunction="J5" end="720" vehsPerHour="29.40516215013694" departLane="free"/>
  <flow id="JF37" begin="360" fromJunction="J4" toJunction="J6" end="720" vehsPerHour="46.120925096573906" departLane="free"/>
  <flow id="JF38" begin="360" fromJunction="J4" toJunction="J7" end="720" vehsPerHour="62.4126298926013" departLane="free"/>
  <flow id="JF39" begin="360" fromJunction="J5" toJunction="J0" end="720" vehsPerHour="56.66441661237562" departLane="free"/>
  <flow id="JF40" begin="360" fromJunction="J5" toJunction="J3" end="720" vehsPerHour="62.37841731259812" departLane="free"/>
  <flow id="JF41" begin="360" fromJunction="J5" toJunction="J4" end="720" vehsPerHour="8.586735830582947" departLane="free"/>
  <flow id="JF42" begin="360" fromJunction="J5" toJunction="J6" end="720" vehsPerHour="7.048029753341972" departLane="free"/>
  <flow id="JF43" begin="360" fromJunction="J5" toJunction="J7" end="720" vehsPerHour="41.336685637715995" departLane="free"/>
  <flow id="JF44" begin="360" fromJunction="J6" toJunction="J5" end="720" vehsPerHour="55.16572030215349" departLane="free"/>
  <flow id="JF45" begin="360" fromJunction="J7" toJunction="J0" end="720" vehsPerHour="64.03381950308658" departLane="free"/>
  <flow id="JF46" begin="360" fromJunction="J7" toJunction="J3" end="720" vehsPerHour="24.859252181413652" departLane="free"/>
  <flow id="JF47" begin="360" fromJunction="J7" toJunction="J4" end="720" vehsPerHour="37.086396536636194" departLane="free"/>
  <flow id="JF48" begin="720" fromJunction="J0" toJunction="J3" end="1080" vehsPerHour="37.07947578179726" departLane="free"/>
  <flow id="JF49" begin="720" fromJunction="J0" toJunction="J4" end="1080" vehsPerHour="91.46499974009228" departLane="free"/>
  <flow id="JF50" begin="720" fromJunction="J0" toJunction="J7" end="1080" vehsPerHour="45.54863023279088" departLane="free"/>
  <flow id="JF51" begin="720" fromJunction="J3" toJunction="J0" end="1080" vehsPerHour="0.40512858300709814" departLane="free"/>
  <flow id="JF52" begin="720" fromJunction="J3" toJunction="J4" end="1080" vehsPerHour="10.486396570646235" departLane="free"/>
  <flow id="JF53" begin="720" fromJunction="J3" toJunction="J5" end="1080" vehsPerHour="119.63320374065512" departLane="free"/>
  <flow id="JF54" begin="720" fromJunction="J4" toJunction="J0" end="1080" vehsPerHour="27.75868591092588" departLane="free"/>
  <flow id="JF55" begin="720" fromJunction="J4" toJunction="J3" end="1080" vehsPerHour="32.13848426595146" departLane="free"/>
  <flow id="JF56" begin="720" fromJunction="J4" toJunction="J6" end="1080" vehsPerHour="12.444032039266803" departLane="free"/>
  <flow id="JF57" begin="720" fromJunction="J4" toJunction="J7" end="1080" vehsPerHour="14.73247964534557" departLane="free"/>
  <flow id="JF58" begin="720" fromJunction="J5" toJunction="J6" end="1080" vehsPerHour="25.859767783412696" departLane="free"/>
  <flow id="JF59" begin="720" fromJunction="J5" toJunction="J7" end="1080" vehsPerHour="34.23992461350051" departLane="free"/>
  <flow id="JF60" begin="720" fromJunction="J6" toJunction="J0" end="1080" vehsPerHour="21.53073084286445" departLane="free"/>
  <flow id="JF61" begin="720" fromJunction="J6" toJunction="J3" end="1080" vehsPerHour="64.37375887523869" departLane="free"/>
  <flow id="JF62" begin="720" fromJunction="J6" toJunction="J4" end="1080" vehsPerHour="3.7362700505257016" departLane="free"/>
  <flow id="JF63" begin="720" fromJunction="J6" toJunction="J7" end="1080" vehsPerHour="25.78626193276005" departLane="free"/>
  <flow id="JF64" begin="720" fromJunction="J7" toJunction="J0" end="1080" vehsPerHour="65.83667796294696" departLane="free"/>
  <flow id="JF65" begin="720" fromJunction="J7" toJunction="J6" end="1080" vehsPerHour="68.50762366866476" departLane="free"/>
  <flow id="JF66" begin="1080" fromJunction="J0" toJunction="J3" end="1440" vehsPerHour="21.4694131092923" departLane="free"/>
  <flow id="JF67" begin="1080" fromJunction="J0" toJunction="J5" end="1440" vehsPerHour="100.70303703929275" departLane="free"/>
  <flow id="JF68" begin="1080" fromJunction="J0" toJunction="J6" end="1440" vehsPerHour="118.66765490697192" departLane="free"/>
  <flow id="JF69" begin="1080" fromJunction="J3" toJunction="J0" end="1440" vehsPerHour="38.24789263687327" departLane="free"/>
  <flow id="JF70" begin="1080" fromJunction="J3" toJunction="J4" end="1440" vehsPerHour="113.11634548727072" departLane="free"/>
  <flow id="JF71" begin="1080" fromJunction="J3" toJunction="J5" end="1440" vehsPerHour="36.34057201720955" departLane="free"/>
  <flow id="JF72" begin="1080" fromJunction="J3" toJunction="J6" end="1440" vehsPerHour="21.846556099400566" departLane="free"/>
  <flow id="JF73" begin="1080" fromJunction="J4" toJunction="J0" end="1440" vehsPerHour="47.809050751635134" departLane="free"/>
  <flow id="JF74" begin="1080" fromJunction="J4" toJunction="J3" end="1440" vehsPerHour="22.194752819263154" departLane="free"/>
  <flow id="JF75" begin="1080" fromJunction="J4" toJunction="J7" end="1440" vehsPerHour="21.497159690300183" departLane="free"/>
  <flow id="JF76" begin="1080" fromJunction="J5" toJunction="J0" end="1440" vehsPerHour="56.32452926743351" departLane="free"/>
  <flow id="JF77" begin="1080" fromJunction="J5" toJunction="J4" end="1440" vehsPerHour="58.830100095279604" departLane="free"/>
  <flow id="JF78" begin="1080" fromJunction="J5" toJunction="J6" end="1440" vehsPerHour="44.155562938828176" departLane="free"/>
  <flow id="JF79" begin="1080" fromJunction="J6" toJunction="J3" end="1440" vehsPerHour="40.11665687039798" departLane="free"/>
  <flow id="JF80" begin="1080" fromJunction="J6" toJunction="J4" end="1440" vehsPerHour="44.7365271010099" departLane="free"/>
  <flow id="JF81" begin="1080" fromJunction="J6" toJunction="J5" end="1440" vehsPerHour="29.86891533674216" departLane="free"/>
  <flow id="JF82" begin="1080" fromJunction="J6" toJunction="J7" end="1440" vehsPerHour="37.769855212753725" departLane="free"/>
  <flow id="JF83" begin="1080" fromJunction="J7" toJunction="J0" end="1440" vehsPerHour="3.562485037522932" departLane="free"/>
  <flow id="JF84" begin="1080" fromJunction="J7" toJunction="J3" end="1440" vehsPerHour="59.14270193314444" departLane="free"/>
  <flow id="JF85" begin="1080" fromJunction="J7" toJunction="J4" end="1440" vehsPerHour="6.113543766828806" departLane="free"/>
  <flow id="JF86" begin="1080" fromJunction="J7" toJunction="J5" end="1440" vehsPerHour="48.52567970222657" departLane="free"/>
  <flow id="JF87" begin="1080" fromJunction="J7" toJunction="J6" end="1440" vehsPerHour="58.66754128564107" departLane="free"/>
  <flow id="JF88" begin="1440" fromJunction="J0" toJunction="J4" end="1800" vehsPerHour="37.28940295288209" departLane="free"/>
  <flow id="JF89" begin="1440" fromJunction="J0" toJunction="J5" end="1800" vehsPerHour="90.8243356626125" departLane="free"/>
  <flow id="JF90" begin="1440" fromJunction="J0" toJunction="J7" end="1800" vehsPerHour="47.21926679308777" departLane="free"/>
  <flow id="JF91" begin="1440" fromJunction="J3" toJunction="J4" end="1800" vehsPerHour="71.85700109843353" departLane="free"/>
  <flow id="JF92" begin="1440" fromJunction="J3" toJunction="J5" end="1800" vehsPerHour="109.67204457845352" departLane="free"/>
  <flow id="JF93" begin="1440" fromJunction="J3" toJunction="J7" end="1800" vehsPerHour="14.42002971821186" departLane="free"/>
  <flow id="JF94" begin="1440" fromJunction="J4" toJunction="J0" end="1800" vehsPerHour="57.87760734142571" departLane="free"/>
  <flow id="JF95" begin="1440" fromJunction="J4" toJunction="J5" end="1800" vehsPerHour="64.51651213112285" departLane="free"/>
  <flow id="JF96" begin="1440" fromJunction="J4" toJunction="J6" end="1800" vehsPerHour="58.58441966031845" departLane="free"/>
  <flow id="JF97" begin="1440" fromJunction="J4" toJunction="J7" end="1800" vehsPerHour="65.20645361671134" departLane="free"/>
  <flow id="JF98" begin="1440" fromJunction="J5" toJunction="J0" end="1800" vehsPerHour="62.42260978308571" departLane="free"/>
  <flow id="JF99" begin="1440" fromJunction="J5" toJunction="J3" end="1800" vehsPerHour="20.280192391721307" departLane="free"/>
  <flow id="JF100" begin="1440" fromJunction="J5" toJunction="J4" end="1800" vehsPerHour="42.57966862617742" departLane="free"/>
  <flow id="JF101" begin="1440" fromJunction="J5" toJunction="J6" end="1800" vehsPerHour="28.743615724719444" departLane="free"/>
  <flow id="JF102" begin="1440" fromJunction="J5" toJunction="J7" end="1800" vehsPerHour="67.14500136284944" departLane="free"/>
  <flow id="JF103" begin="1440" fromJunction="J6" toJunction="J3" end="1800" vehsPerHour="64.31076322858952" departLane="free"/>
  <flow id="JF104" begin="1440" fromJunction="J6" toJunction="J5" end="1800" vehsPerHour="58.67803160145228" departLane="free"/>
  <flow id="JF105" begin="1440" fromJunction="J6" toJunction="J7" end="1800" vehsPerHour="7.895106321627602" departLane="free"/>
  <flow id="JF106" begin="1440" fromJunction="J7" toJunction="J4" end="1800" vehsPerHour="65.09893295277342" departLane="free"/>
  <flow id="JF107" begin="1440" fromJunction="J7" toJunction="J6" end="1800" vehsPerHour="0.25214771219248683" departLane="free"/>
  <flow id="JF108" begin="1800" fromJunction="J0" toJunction="J3" end="2160" vehsPerHour="21.604927832697467" departLane="free"/>
  <flow id="JF109" begin="1800" fromJunction="J0" toJunction="J5" end="2160" vehsPerHour="76.62615913551221" departLane="free"/>
  <flow id="JF110" begin="1800" fromJunction="J0" toJunction="J6" end="2160" vehsPerHour="29.291650168040498" departLane="free"/>
  <flow id="JF111" begin="1800" fromJunction="J0" toJunction="J7" end="2160" vehsPerHour="63.822839380095836" departLane="free"/>
  <flow id="JF112" begin="1800" fromJunction="J3" toJunction="J0" end="2160" vehsPerHour="77.065253081622" departLane="free"/>
  <flow id="JF113" begin="1800" fromJunction="J3" toJunction="J4" end="2160" vehsPerHour="4.599503454862326" departLane="free"/>
  <flow id="JF114" begin="1800" fromJunction="J3" toJunction="J5" end="2160" vehsPerHour="82.33952597988946" departLane="free"/>
  <flow id="JF115" begin="1800" fromJunction="J3" toJunction="J7" end="2160" vehsPerHour="38.24415443487497" departLane="free"/>
  <flow id="JF116" begin="1800" fromJunction="J4" toJunction="J0" end="2160" vehsPerHour="55.664581575376864" departLane="free"/>
  <flow id="JF117" begin="1800" fromJunction="J4" toJunction="J5" end="2160" vehsPerHour="26.252653679123625" departLane="free"/>
  <flow id="JF118" begin="1800" fromJunction="J5" toJunction="J0" end="2160" vehsPerHour="67.95281249424069" departLane="free"/>
  <flow id="JF119" begin="1800" fromJunction="J5" toJunction="J3" end="2160" vehsPerHour="40.672292508089" departLane="free"/>
  <flow id="JF120" begin="1800" fromJunction="J5" toJunction="J4" end="2160" vehsPerHour="63.170356138117484" departLane="free"/>
  <flow id="JF121" begin="1800" fromJunction="J6" toJunction="J5" end="2160" vehsPerHour="60.91302778331403" departLane="free"/>
  <flow id="JF122" begin="1800" fromJunction="J7" toJunction="J0" end="2160" vehsPerHour="0.16035568070828068" departLane="free"/>
  <flow id="JF123" begin="1800" fromJunction="J7" toJunction="J3" end="2160" vehsPerHour="35.850130898556515" departLane="free"/>
  <flow id="JF124" begin="1800" fromJunction="J7" toJunction="J4" end="2160" vehsPerHour="66.66943069388995" departLane="free"/>
  <flow id="JF125" begin="1800" fromJunction="J7" toJunction="J5" end="2160" vehsPerHour="35.68635721869558" departLane="free"/>
  <flow id="JF126" begin="1800" fromJunction="J7" toJunction="J6" end="2160" vehsPerHour="37.31448477790239" departLane="free"/>
  <flow id="JF127" begin="2160" fromJunction="J0" toJunction="J3" end="2520" vehsPerHour="120.48878586693849" departLane="free"/>
  <flow id="JF128" begin="2160" fromJunction="J0" toJunction="J5" end="2520" vehsPerHour="71.58475399518102" departLane="free"/>
  <flow id="JF129" begin="2160" fromJunction="J0" toJunction="J6" end="2520" vehsPerHour="19.49243979510082" departLane="free"/>
  <flow id="JF130" begin="2160" fromJunction="J3" toJunction="J4" end="2520" vehsPerHour="120.71838372805982" departLane="free"/>
  <flow id="JF131" begin="2160" fromJunction="J3" toJunction="J5" end="2520" vehsPerHour="19.970108859410217" departLane="free"/>
  <flow id="JF132" begin="2160" fromJunction="J3" toJunction="J6" end="2520" vehsPerHour="108.22684484048759" departLane="free"/>
  <flow id="JF133" begin="2160" fromJunction="J3" toJunction="J7" end="2520" vehsPerHour="15.436233268171033" departLane="free"/>
  <flow id="JF134" begin="2160" fromJunction="J4" toJunction="J0" end="2520" vehsPerHour="51.034305426511196" departLane="free"/>
  <flow id="JF135" begin="2160" fromJunction="J4" toJunction="J3" end="2520" vehsPerHour="7.031601485182747" departLane="free"/>
  <flow id="JF136" begin="2160" fromJunction="J4" toJunction="J6" end="2520" vehsPerHour="18.433410939690464" departLane="free"/>
  <flow id="JF137" begin="2160" fromJunction="J4" toJunction="J7" end="2520" vehsPerHour="41.310760860949586" departLane="free"/>
  <flow id="JF138" begin="2160" fromJunction="J5" toJunction="J3" end="2520" vehsPerHour="63.62696565844021" departLane="free"/>
  <flow id="JF139" begin="2160" fromJunction="J5" toJunction="J6" end="2520" vehsPerHour="56.44750845953257" departLane="free"/>
  <flow id="JF140" begin="2160" fromJunction="J5" toJunction="J7" end="2520" vehsPerHour="10.48001023766022" departLane="free"/>
  <flow id="JF141" begin="2160" fromJunction="J6" toJunction="J0" end="2520" vehsPerHour="50.5671680794329" departLane="free"/>
  <flow id="JF142" begin="2160" fromJunction="J6" toJunction="J5" end="2520" vehsPerHour="3.9577817813358713" departLane="free"/>
  <flow id="JF143" begin="2160" fromJunction="J6" toJunction="J7" end="2520" vehsPerHour="2.0847302327928667" departLane="free"/>
  <flow id="JF144" begin="2160" fromJunction="J7" toJunction="J0" end="2520" vehsPerHour="33.27872400503158" departLane="free"/>
  <flow id="JF145" begin="2160" fromJunction="J7" toJunction="J3" end="2520" vehsPerHour="37.573965652337826" departLane="free"/>
  <flow id="JF146" begin="2160" fromJunction="J7" toJunction="J4" end="2520" vehsPerHour="56.128421839902096" departLane="free"/>
  <flow id="JF147" begin="2160" fromJunction="J7" toJunction="J5" end="2520" vehsPerHour="42.733380297944116" departLane="free"/>
  <flow id="JF148" begin="2160" fromJunction="J7" toJunction="J6" end="2520" vehsPerHour="17.43323185593647" departLane="free"/>
  <flow id="JF149" begin="2520" fromJunction="J0" toJunction="J3" end="2880" vehsPerHour="83.55568514217838" departLane="free"/>
  <flow id="JF150" begin="2520" fromJunction="J0" toJunction="J7" end="2880" vehsPerHour="39.20383819024017" departLane="free"/>
  <flow id="JF151" begin="2520" fromJunction="J3" toJunction="J5" end="2880" vehsPerHour="41.99355016349126" departLane="free"/>
  <flow id="JF152" begin="2520" fromJunction="J3" toJunction="J6" end="2880" vehsPerHour="80.62177723623907" departLane="free"/>
  <flow id="JF153" begin="2520" fromJunction="J3" toJunction="J7" end="2880" vehsPerHour="21.486019765767107" departLane="free"/>
  <flow id="JF154" begin="2520" fromJunction="J4" toJunction="J6" end="2880" vehsPerHour="33.143845874365844" departLane="free"/>
  <flow id="JF155" begin="2520" fromJunction="J5" toJunction="J0" end="2880" vehsPerHour="52.195431171062076" departLane="free"/>
  <flow id="JF156" begin="2520" fromJunction="J5" toJunction="J3" end="2880" vehsPerHour="63.30950242225889" departLane="free"/>
  <flow id="JF157" begin="2520" fromJunction="J5" toJunction="J7" end="2880" vehsPerHour="15.031079719665023" departLane="free"/>
  <flow id="JF158" begin="2520" fromJunction="J6" toJunction="J0" end="2880" vehsPerHour="57.34714325037113" departLane="free"/>
  <flow id="JF159" begin="2520" fromJunction="J6" toJunction="J3" end="2880" vehsPerHour="39.740460384404706" departLane="free"/>
  <flow id="JF160" begin="2520" fromJunction="J6" toJunction="J4" end="2880" vehsPerHour="67.38770262800954" departLane="free"/>
  <flow id="JF161" begin="2520" fromJunction="J7" toJunction="J0" end="2880" vehsPerHour="57.110385047743804" departLane="free"/>
  <flow id="JF162" begin="2520" fromJunction="J7" toJunction="J3" end="2880" vehsPerHour="46.586675553158344" departLane="free"/>
  <flow id="JF163" begin="2520" fromJunction="J7" toJunction="J4" end="2880" vehsPerHour="62.00602981937833" departLane="free"/>
  <flow id="JF164" begin="2520" fromJunction="J7" toJunction="J5" end="2880" vehsPerHour="64.2523052278842" departLane="free"/>
  <flow id="JF165" begin="2880" fromJunction="J0" toJunction="J3" end="3240" vehsPerHour="62.70701340790653" departLane="free"/>
  <flow id="JF166" begin="2880" fromJunction="J0" toJunction="J7" end="3240" vehsPerHour="27.931527699830205" departLane="free"/>
  <flow id="JF167" begin="2880" fromJunction="J3" toJunction="J4" end="3240" vehsPerHour="119.8035960381131" departLane="free"/>
  <flow id="JF168" begin="2880" fromJunction="J3" toJunction="J6" end="3240" vehsPerHour="61.83107923822094" departLane="free"/>
  <flow id="JF169" begin="2880" fromJunction="J4" toJunction="J3" end="3240" vehsPerHour="0.05822245724210711" departLane="free"/>
  <flow id="JF170" begin="2880" fromJunction="J4" toJunction="J6" end="3240" vehsPerHour="64.53138137338841" departLane="free"/>
  <flow id="JF171" begin="2880" fromJunction="J4" toJunction="J7" end="3240" vehsPerHour="14.628476385437052" departLane="free"/>
  <flow id="JF172" begin="2880" fromJunction="J5" toJunction="J0" end="3240" vehsPerHour="4.011193636048986" departLane="free"/>
  <flow id="JF173" begin="2880" fromJunction="J5" toJunction="J4" end="3240" vehsPerHour="29.353431629178214" departLane="free"/>
  <flow id="JF174" begin="2880" fromJunction="J6" toJunction="J4" end="3240" vehsPerHour="34.233304231740846" departLane="free"/>
  <flow id="JF175" begin="2880" fromJunction="J6" toJunction="J7" end="3240" vehsPerHour="46.78235956716874" departLane="free"/>
  <flow id="JF176" begin="2880" fromJunction="J7" toJunction="J0" end="3240" vehsPerHour="15.598226784152313" departLane="free"/>
  <flow id="JF177" begin="2880" fromJunction="J7" toJunction="J3" end="3240" vehsPerHour="47.68744935710461" departLane="free"/>
  <flow id="JF178" begin="2880" fromJunction="J7" toJunction="J4" end="3240" vehsPerHour="46.85670140079788" departLane="free"/>
  <flow id="JF179" begin="2880" fromJunction="J7" toJunction="J5" end="3240" vehsPerHour="33.362671201732944" departLane="free"/>
  <flow id="JF180" begin="2880" fromJunction="J7" toJunction="J6" end="3240" vehsPerHour="64.84682673209089" departLane="free"/>
  <flow id="JF181" begin="3240" fromJunction="J0" toJunction="J3" end="3600" vehsPerHour="60.04090358344627" departLane="free"/>
  <flow id="JF182" begin="3240" fromJunction="J0" toJunction="J4" end="3600" vehsPerHour="86.72748237505957" departLane="free"/>
  <flow id="JF183" begin="3240" fromJunction="J0" toJunction="J5" end="3600" vehsPerHour="35.07920871928294" departLane="free"/>
  <flow id="JF184" begin="3240" fromJunction="J0" toJunction="J6" end="3600" vehsPerHour="119.59328659563278" departLane="free"/>
  <flow id="JF185" begin="3240" fromJunction="J0" toJunction="J7" end="3600" vehsPerHour="4.657992685153339" departLane="free"/>
  <flow id="JF186" begin="3240" fromJunction="J3" toJunction="J0" end="3600" vehsPerHour="12.666283740643282" departLane="free"/>
  <flow id="JF187" begin="3240" fromJunction="J3" toJunction="J4" end="3600" vehsPerHour="7.134452835515483" departLane="free"/>
  <flow id="JF188" begin="3240" fromJunction="J3" toJunction="J6" end="3600" vehsPerHour="114.38847000222124" departLane="free"/>
  <flow id="JF189" begin="3240" fromJunction="J3" toJunction="J7" end="3600" vehsPerHour="18.129273753499973" departLane="free"/>
  <flow id="JF190" begin="3240" fromJunction="J4" toJunction="J3" end="3600" vehsPerHour="1.1457170693374312" departLane="free"/>
  <flow id="JF191" begin="3240" fromJunction="J4" toJunction="J5" end="3600" vehsPerHour="25.72580442002916" departLane="free"/>
  <flow id="JF192" begin="3240" fromJunction="J4" toJunction="J6" end="3600" vehsPerHour="11.63189827654132" departLane="free"/>
  <flow id="JF193" begin="3240" fromJunction="J4" toJunction="J7" end="3600" vehsPerHour="10.380353642932636" departLane="free"/>
  <flow id="JF194" begin="3240" fromJunction="J5" toJunction="J4" end="3600" vehsPerHour="7.873563460777059" departLane="free"/>
  <flow id="JF195" begin="3240" fromJunction="J5" toJunction="J6" end="3600" vehsPerHour="8.246885808035236" departLane="free"/>
  <flow id="JF196" begin="3240" fromJunction="J6" toJunction="J0" end="3600" vehsPerHour="17.385339095747927" departLane="free"/>
  <flow id="JF197" begin="3240" fromJunction="J6" toJunction="J4" end="3600" vehsPerHour="48.70180110200932" departLane="free"/>
  <flow id="JF198" begin="3240" fromJunction="J6" toJunction="J5" end="3600" vehsPerHour="7.6750261997490234" departLane="free"/>
  <flow id="JF199" begin="3240" fromJunction="J7" toJunction="J0" end="3600" vehsPerHour="61.08776417185153" departLane="free"/>
  <flow id="JF200" begin="3240" fromJunction="J7" toJunction="J3" end="3600" vehsPerHour="11.55919390732522" departLane="free"/>
  <flow id="JF201" begin="3240" fromJunction="J7" toJunction="J4" end="3600" vehsPerHour="63.18951281678533" departLane="free"/>
  <flow id="JF202" begin="3240" fromJunction="J7" toJunction="J6" end="3600" vehsPerHour="68.51692392319949" departLane="free"/>
  <flow id="JF203" begin="3600" fromJunction="J0" toJunction="J3" end="3960" vehsPerHour="26.470622411888872" departLane="free"/>
  <flow id="JF204" begin="3600" fromJunction="J0" toJunction="J4" end="3960" vehsPerHour="18.164159989382107" departLane="free"/>
  <flow id="JF205" begin="3600" fromJunction="J0" toJunction="J5" end="3960" vehsPerHour="108.15215729115555" departLane="free"/>
  <flow id="JF206" begin="3600" fromJunction="J0" toJunction="J6" end="3960" vehsPerHour="6.960229934449831" departLane="free"/>
  <flow id="JF207" begin="3600" fromJunction="J0" toJunction="J7" end="3960" vehsPerHour="7.59534544632315" departLane="free"/>
  <flow id="JF208" begin="3600" fromJunction="J3" toJunction="J0" end="3960" vehsPerHour="132.78966289745634" departLane="free"/>
  <flow id="JF209" begin="3600" fromJunction="J3" toJunction="J4" end="3960" vehsPerHour="77.1456166116498" departLane="free"/>
  <flow id="JF210" begin="3600" fromJunction="J3" toJunction="J6" end="3960" vehsPerHour="12.505453780549821" departLane="free"/>
  <flow id="JF211" begin="3600" fromJunction="J3" toJunction="J7" end="3960" vehsPerHour="20.507258616909187" departLane="free"/>
  <flow id="JF212" begin="3600" fromJunction="J4" toJunction="J3" end="3960" vehsPerHour="21.262539334681673" departLane="free"/>
  <flow id="JF213" begin="3600" fromJunction="J4" toJunction="J5" end="3960" vehsPerHour="53.972289543354236" departLane="free"/>
  <flow id="JF214" begin="3600" fromJunction="J4" toJunction="J6" end="3960" vehsPerHour="60.00444613372107" departLane="free"/>
  <flow id="JF215" begin="3600" fromJunction="J5" toJunction="J0" end="3960" vehsPerHour="55.88389684587416" departLane="free"/>
  <flow id="JF216" begin="3600" fromJunction="J5" toJunction="J3" end="3960" vehsPerHour="19.915450118346673" departLane="free"/>
  <flow id="JF217" begin="3600" fromJunction="J5" toJunction="J4" end="3960" vehsPerHour="17.241398022682187" departLane="free"/>
  <flow id="JF218" begin="3600" fromJunction="J5" toJunction="J6" end="3960" vehsPerHour="44.54462827850971" departLane="free"/>
  <flow id="JF219" begin="3600" fromJunction="J5" toJunction="J7" end="3960" vehsPerHour="52.221930686354455" departLane="free"/>
  <flow id="JF220" begin="3600" fromJunction="J6" toJunction="J0" end="3960" vehsPerHour="63.56464053446417" departLane="free"/>
  <flow id="JF221" begin="3600" fromJunction="J6" toJunction="J4" end="3960" vehsPerHour="40.8011443703541" departLane="free"/>
  <flow id="JF222" begin="3600" fromJunction="J6" toJunction="J5" end="3960" vehsPerHour="18.280181433420665" departLane="free"/>
  <flow id="JF223" begin="3600" fromJunction="J6" toJunction="J7" end="3960" vehsPerHour="46.030552495160705" departLane="free"/>
  <flow id="JF224" begin="3600" fromJunction="J7" toJunction="J0" end="3960" vehsPerHour="18.737951349308187" departLane="free"/>
  <flow id="JF225" begin="3600" fromJunction="J7" toJunction="J3" end="3960" vehsPerHour="30.375071079641955" departLane="free"/>
  <flow id="JF226" begin="3600" fromJunction="J7" toJunction="J4" end="3960" vehsPerHour="16.999727373571307" departLane="free"/>
  <flow id="JF227" begin="3600" fromJunction="J7" toJunction="J6" end="3960" vehsPerHour="48.66611284973835" departLane="free"/>
  <flow id="JF228" begin="3960" fromJunction="J0" toJunction="J3" end="4320" vehsPerHour="112.1982139124031" departLane="free"/>
  <flow id="JF229" begin="3960" fromJunction="J0" toJunction="J4" end="4320" vehsPerHour="49.132086190275196" departLane="free"/>
  <flow id="JF230" begin="3960" fromJunction="J0" toJunction="J6" end="4320" vehsPerHour="118.51784838960364" departLane="free"/>
  <flow id="JF231" begin="3960" fromJunction="J3" toJunction="J4" end="4320" vehsPerHour="65.97381645071154" departLane="free"/>