<?xml version="1.0" encoding="UTF-8"?>
<routes xmlns:xsi="http://www.w3.org/2001/XMLSchema-instance" xsi:noNamespaceSchemaLocation="http://sumo.dlr.de/xsd/routes_file.xsd">
  <flow id="JF58954" begin="0" fromJunction="J0" toJunction="J3" end="60" vehsPerHour="56.471109268497024"/>
  <flow id="JF58955" begin="0" fromJunction="J3" toJunction="J0" end="60" vehsPerHour="498.0869853968679"/>
  <flow id="JF58956" begin="0" fromJunction="J0" toJunction="J7" end="60" vehsPerHour="27.873306673111585"/>
  <flow id="JF58957" begin="0" fromJunction="J0" toJunction="J6" end="60" vehsPerHour="43.16151918129406"/>
  <flow id="JF58958" begin="0" fromJunction="J0" toJunction="J5" end="60" vehsPerHour="136.40545636161147"/>
  <flow id="JF58959" begin="0" fromJunction="J0" toJunction="J4" end="60" vehsPerHour="70.96751310333188"/>
  <flow id="JF58960" begin="0" fromJunction="J3" toJunction="J7" end="60" vehsPerHour="135.75358551659235"/>
  <flow id="JF58961" begin="0" fromJunction="J3" toJunction="J6" end="60" vehsPerHour="131.7376326545095"/>
  <flow id="JF58962" begin="0" fromJunction="J3" toJunction="J5" end="60" vehsPerHour="58.27487916157422"/>
  <flow id="JF58963" begin="0" fromJunction="J3" toJunction="J4" end="60" vehsPerHour="53.160956731113956"/>
  <flow id="JF58964" begin="0" fromJunction="J7" toJunction="J6" end="60" vehsPerHour="20.0754057814326"/>
  <flow id="JF58965" begin="0" fromJunction="J7" toJunction="J5" end="60" vehsPerHour="60.46581059036825"/>
  <flow id="JF58966" begin="0" fromJunction="J7" toJunction="J4" end="60" vehsPerHour="29.926542463771252"/>
  <flow id="JF58967" begin="0" fromJunction="J6" toJunction="J7" end="60" vehsPerHour="57.54890270392952"/>
  <flow id="JF58968" begin="0" fromJunction="J6" toJunction="J5" end="60" vehsPerHour="3.5920654454483336"/>
  <flow id="JF58969" begin="0" fromJunction="J6" toJunction="J4" end="60" vehsPerHour="27.956924673675008"/>
  <flow id="JF58970" begin="0" fromJunction="J5" toJunction="J7" end="60" vehsPerHour="29.726420283056143"/>
  <flow id="JF58971" begin="0" fromJunction="J5" toJunction="J6" end="60" vehsPerHour="28.60769719311651"/>
  <flow id="JF58972" begin="0" fromJunction="J5" toJunction="J4" end="60" vehsPerHour="54.010651844467226"/>
  <flow id="JF58973" begin="0" fromJunction="J4" toJunction="J7" end="60" vehsPerHour="27.334156366203437"/>
  <flow id="JF58974" begin="0" fromJunction="J4" toJunction="J6" end="60" vehsPerHour="21.114046041953976"/>
  <flow id="JF58975" begin="0" fromJunction="J4" toJunction="J5" end="60" vehsPerHour="17.34459254492274"/>
  <flow id="JF58976" begin="0" fromJunction="J7" toJunction="J0" end="60" vehsPerHour="64.15077089041009"/>
  <flow id="JF58977" begin="0" fromJunction="J7" toJunction="J3" end="60" vehsPerHour="4.756348244702607"/>
  <flow id="JF58978" begin="0" fromJunction="J6" toJunction="J0" end="60" vehsPerHour="42.41613072920623"/>
  <flow id="JF58979" begin="0" fromJunction="J6" toJunction="J3" end="60" vehsPerHour="42.53932644618667"/>
  <flow id="JF58980" begin="0" fromJunction="J5" toJunction="J0" end="60" vehsPerHour="3.405442338413304"/>
  <flow id="JF58981" begin="0" fromJunction="J5" toJunction="J3" end="60" vehsPerHour="62.01172998260957"/>
  <flow id="JF58982" begin="0" fromJunction="J4" toJunction="J0" end="60" vehsPerHour="54.3024543154998"/>
  <flow id="JF58983" begin="0" fromJunction="J4" toJunction="J3" end="60" vehsPerHour="9.663472360696703"/>
  <flow id="JF58984" begin="60" fromJunction="J0" toJunction="J3" end="120" vehsPerHour="281.6279781231425"/>
  <flow id="JF58985" begin="60" fromJunction="J3" toJunction="J0" end="120" vehsPerHour="12.606603884422595"/>
  <flow id="JF58986" begin="60" fromJunction="J0" toJunction="J7" end="120" vehsPerHour="121.9418259714436"/>
  <flow id="JF58987" begin="60" fromJunction="J0" toJunction="J6" end="120" vehsPerHour="68.7664804435025"/>
  <flow id="JF58988" begin="60" fromJunction="J0" toJunction="J5" end="120" vehsPerHour="58.35823189455114"/>
  <flow id="JF58989" begin="60" fromJunction="J0" toJunction="J4" end="120" vehsPerHour="31.44109015902359"/>
  <flow id="JF58990" begin="60" fromJunction="J3" toJunction="J7" end="120" vehsPerHour="136.4374776598406"/>
  <flow id="JF58991" begin="60" fromJunction="J3" toJunction="J6" end="120" vehsPerHour="6.6003986385956885"/>
  <flow id="JF58992" begin="60" fromJunction="J3" toJunction="J5" end="120" vehsPerHour="14.495057826804995"/>
  <flow id="JF58993" begin="60" fromJunction="J3" toJunction="J4" end="120" vehsPerHour="15.407386067919555"/>
  <flow id="JF58994" begin="60" fromJunction="J7" toJunction="J6" end="120" vehsPerHour="58.25511377779787"/>
  <flow id="JF58995" begin="60" fromJunction="J7" toJunction="J5" end="120" vehsPerHour="46.40305142271355"/>
  <flow id="JF58996" begin="60" fromJunction="J7" toJunction="J4" end="120" vehsPerHour="34.78374108834146"/>
  <flow id="JF58997" begin="60" fromJunction="J6" toJunction="J7" end="120" vehsPerHour="10.407712508670055"/>
  <flow id="JF58998" begin="60" fromJunction="J6" toJunction="J5" end="120" vehsPerHour="17.310546733224665"/>
  <flow id="JF58999" begin="60" fromJunction="J6" toJunction="J4" end="120" vehsPerHour="54.657803841769486"/>
  <flow id="JF59000" begin="60" fromJunction="J5" toJunction="J7" end="120" vehsPerHour="49.71661069860042"/>
  <flow id="JF59001" begin="60" fromJunction="J5" toJunction="J6" end="120" vehsPerHour="52.930608908190415"/>
  <flow id="JF59002" begin="60" fromJunction="J5" toJunction="J4" end="120" vehsPerHour="60.7829139478599"/>
  <flow id="JF59003" begin="60" fromJunction="J4" toJunction="J7" end="120" vehsPerHour="46.85062084057793"/>
  <flow id="JF59004" begin="60" fromJunction="J4" toJunction="J6" end="120" vehsPerHour="49.96329416641065"/>
  <flow id="JF59005" begin="60" fromJunction="J4" toJunction="J5" end="120" vehsPerHour="38.913982297518764"/>
  <flow id="JF59006" begin="60" fromJunction="J7" toJunction="J0" end="120" vehsPerHour="45.00816334987244"/>
  <flow id="JF59007" begin="60" fromJunction="J7" toJunction="J3" end="120" vehsPerHour="50.8064387963646"/>
  <flow id="JF59008" begin="60" fromJunction="J6" toJunction="J0" end="120" vehsPerHour="67.74125868019058"/>
  <flow id="JF59009" begin="60" fromJunction="J6" toJunction="J3" end="120" vehsPerHour="19.0049697435372"/>
  <flow id="JF59010" begin="60" fromJunction="J5" toJunction="J0" end="120" vehsPerHour="55.83372786608862"/>
  <flow id="JF59011" begin="60" fromJunction="J5" toJunction="J3" end="120" vehsPerHour="55.5051654028888"/>
  <flow id="JF59012" begin="60" fromJunction="J4" toJunction="J0" end="120" vehsPerHour="18.413208777233105"/>
  <flow id="JF59013" begin="60" fromJunction="J4" toJunction="J3" end="120" vehsPerHour="68.04630478407044"/>
  <flow id="JF59014" begin="120" fromJunction="J0" toJunction="J3" end="180" vehsPerHour="500.9305572265349"/>
  <flow id="JF59015" begin="120" fromJunction="J3" toJunction="J0" end="180" vehsPerHour="128.4910955850219"/>
  <flow id="JF59016" begin="120" fromJunction="J0" toJunction="J7" end="180" vehsPerHour="107.29871906349973"/>
  <flow id="JF59017" begin="120" fromJunction="J0" toJunction="J6" end="180" vehsPerHour="18.689530885554543"/>
  <flow id="JF59018" begin="120" fromJunction="J0" toJunction="J5" end="180" vehsPerHour="66.32445525776231"/>
  <flow id="JF59019" begin="120" fromJunction="J0" toJunction="J4" end="180" vehsPerHour="115.6698170203166"/>
  <flow id="JF59020" begin="120" fromJunction="J3" toJunction="J7" end="180" vehsPerHour="135.9395866493112"/>
  <flow id="JF59021" begin="120" fromJunction="J3" toJunction="J6" end="180" vehsPerHour="79.53358023911439"/>
  <flow id="JF59022" begin="120" fromJunction="J3" toJunction="J5" end="180" vehsPerHour="120.9569165447368"/>
  <flow id="JF59023" begin="120" fromJunction="J3" toJunction="J4" end="180" vehsPerHour="131.95924739574082"/>
  <flow id="JF59024" begin="120" fromJunction="J7" toJunction="J6" end="180" vehsPerHour="48.55996410549313"/>
  <flow id="JF59025" begin="120" fromJunction="J7" toJunction="J5" end="180" vehsPerHour="62.09338264029841"/>
  <flow id="JF59026" begin="120" fromJunction="J7" toJunction="J4" end="180" vehsPerHour="39.462926269547076"/>
  <flow id="JF59027" begin="120" fromJunction="J6" toJunction="J7" end="180" vehsPerHour="28.736223694533436"/>
  <flow id="JF59028" begin="120" fromJunction="J6" toJunction="J5" end="180" vehsPerHour="18.13774590418334"/>
  <flow id="JF59029" begin="120" fromJunction="J6" toJunction="J4" end="180" vehsPerHour="12.044169673353837"/>
  <flow id="JF59030" begin="120" fromJunction="J5" toJunction="J7" end="180" vehsPerHour="61.76382512031438"/>
  <flow id="JF59031" begin="120" fromJunction="J5" toJunction="J6" end="180" vehsPerHour="40.881510288818355"/>
  <flow id="JF59032" begin="120" fromJunction="J5" toJunction="J4" end="180" vehsPerHour="14.49872500496369"/>
  <flow id="JF59033" begin="120" fromJunction="J4" toJunction="J7" end="180" vehsPerHour="40.518855554027546"/>
  <flow id="JF59034" begin="120" fromJunction="J4" toJunction="J6" end="180" vehsPerHour="5.811871965187503"/>
  <flow id="JF59035" begin="120" fromJunction="J4" toJunction="J5" end="180" vehsPerHour="43.758473621385356"/>
  <flow id="JF59036" begin="120" fromJunction="J7" toJunction="J0" end="180" vehsPerHour="47.751438196929506"/>
  <flow id="JF59037" begin="120" fromJunction="J7" toJunction="J3" end="180" vehsPerHour="46.64128938635128"/>
  <flow id="JF59038" begin="120" fromJunction="J6" toJunction="J0" end="180" vehsPerHour="10.101979079912603"/>
  <flow id="JF59039" begin="120" fromJunction="J6" toJunction="J3" end="180" vehsPerHour="59.015280462981394"/>
  <flow id="JF59040" begin="120" fromJunction="J5" toJunction="J0" end="180" vehsPerHour="40.23431415865148"/>
  <flow id="JF59041" begin="120" fromJunction="J5" toJunction="J3" end="180" vehsPerHour="31.648683145821703"/>
  <flow id="JF59042" begin="120" fromJunction="J4" toJunction="J0" end="180" vehsPerHour="53.2724641223919"/>
  <flow id="JF59043" begin="120" fromJunction="J4" toJunction="J3" end="180" vehsPerHour="27.870773773226485"/>
  <flow id="JF59044" begin="180" fromJunction="J0" toJunction="J3" end="240" vehsPerHour="122.6902927433892"/>
  <flow id="JF59045" begin="180" fromJunction="J3" toJunction="J0" end="240" vehsPerHour="7.35690626512054"/>
  <flow id="JF59046" begin="180" fromJunction="J0" toJunction="J7" end="240" vehsPerHour="19.08866613549835"/>
  <flow id="JF59047" begin="180" fromJunction="J0" toJunction="J6" end="240" vehsPerHour="27.060929056369844"/>
  <flow id="JF59048" begin="180" fromJunction="J0" toJunction="J5" end="240" vehsPerHour="113.8387975357896"/>
  <flow id="JF59049" begin="180" fromJunction="J0" toJunction="J4" end="240" vehsPerHour="4.697237799930981"/>
  <flow id="JF59050" begin="180" fromJunction="J3" toJunction="J7" end="240" vehsPerHour="4.078775129822216"/>
  <flow id="JF59051" begin="180" fromJunction="J3" toJunction="J6" end="240" vehsPerHour="54.7736358981746"/>
  <flow id="JF59052" begin="180" fromJunction="J3" toJunction="J5" end="240" vehsPerHour="23.724177636736083"/>
  <flow id="JF59053" begin="180" fromJunction="J3" toJunction="J4" end="240" vehsPerHour="6.272579533092773"/>
  <flow id="JF59054" begin="180" fromJunction="J7" toJunction="J6" end="240" vehsPerHour="22.211629101736772"/>
  <flow id="JF59055" begin="180" fromJunction="J7" toJunction="J5" end="240" vehsPerHour="44.00495813109868"/>
  <flow id="JF59056" begin="180" fromJunction="J7" toJunction="J4" end="240" vehsPerHour="15.246163662498805"/>
  <flow id="JF59057" begin="180" fromJunction="J6" toJunction="J7" end="240" vehsPerHour="23.534911122835418"/>
  <flow id="JF59058" begin="180" fromJunction="J6" toJunction="J5" end="240" vehsPerHour="25.14333629210254"/>
  <flow id="JF59059" begin="180" fromJunction="J6" toJunction="J4" end="240" vehsPerHour="30.248772829039403"/>
  <flow id="JF59060" begin="180" fromJunction="J5" toJunction="J7" end="240" vehsPerHour="4.895258660971342"/>
  <flow id="JF59061" begin="180" fromJunction="J5" toJunction="J6" end="240" vehsPerHour="8.49044020189382"/>
  <flow id="JF59062" begin="180" fromJunction="J5" toJunction="J4" end="240" vehsPerHour="14.813407960746577"/>
  <flow id="JF59063" begin="180" fromJunction="J4" toJunction="J7" end="240" vehsPerHour="68.51693857882526"/>
  <flow id="JF59064" begin="180" fromJunction="J4" toJunction="J6" end="240" vehsPerHour="23.60624745892276"/>
  <flow id="JF59065" begin="180" fromJunction="J4" toJunction="J5" end="240" vehsPerHour="59.73510831945088"/>
  <flow id="JF59066" begin="180" fromJunction="J7" toJunction="J0" end="240" vehsPerHour="35.91037957487044"/>
  <flow id="JF59067" begin="180" fromJunction="J7" toJunction="J3" end="240" vehsPerHour="67.02874197119597"/>
  <flow id="JF59068" begin="180" fromJunction="J6" toJunction="J0" end="240" vehsPerHour="48.22897635212455"/>
  <flow id="JF59069" begin="180" fromJunction="J6" toJunction="J3" end="240" vehsPerHour="54.586488300848984"/>
  <flow id="JF59070" begin="180" fromJunction="J5" toJunction="J0" end="240" vehsPerHour="67.47962522739692"/>
  <flow id="JF59071" begin="180" fromJunction="J5" toJunction="J3" end="240" vehsPerHour="20.135607379555783"/>
  <flow id="JF59072" begin="180" fromJunction="J4" toJunction="J0" end="240" vehsPerHour="54.92381257567494"/>
  <flow id="JF59073" begin="180" fromJunction="J4" toJunction="J3" end="240" vehsPerHour="55.67196491362784"/>
  <flow id="JF59074" begin="240" fromJunction="J0" toJunction="J3" end="300" vehsPerHour="480.3376426090423"/>
  <flow id="JF59075" begin="240" fromJunction="J3" toJunction="J0" end="300" vehsPerHour="49.622595115832176"/>
  <flow id="JF59076" begin="240" fromJunction="J0" toJunction="J7" end="300" vehsPerHour="1.8434511531955207"/>
  <flow id="JF59077" begin="240" fromJunction="J0" toJunction="J6" end="300" vehsPerHour="85.80516162011259"/>
  <flow id="JF59078" begin="240" fromJunction="J0" toJunction="J5" end="300" vehsPerHour="51.876666367837124"/>
  <flow id="JF59079" begin="240" fromJunction="J0" toJunction="J4" end="300" vehsPerHour="34.94087417687267"/>
  <flow id="JF59080" begin="240" fromJunction="J3" toJunction="J7" end="300" vehsPerHour="45.783992192618236"/>
  <flow id="JF59081" begin="240" fromJunction="J3" toJunction="J6" end="300" vehsPerHour="126.81904222011165"/>
  <flow id="JF59082" begin="240" fromJunction="J3" toJunction="J5" end="300" vehsPerHour="89.41422688618067"/>
  <flow id="JF59083" begin="240" fromJunction="J3" toJunction="J4" end="300" vehsPerHour="32.28763560156828"/>
  <flow id="JF59084" begin="240" fromJunction="J7" toJunction="J6" end="300" vehsPerHour="22.32015828520259"/>
  <flow id="JF59085" begin="240" fromJunction="J7" toJunction="J5" end="300" vehsPerHour="43.66769574756412"/>
  <flow id="JF59086" begin="240" fromJunction="J7" toJunction="J4" end="300" vehsPerHour="31.36200892265246"/>
  <flow id="JF59087" begin="240" fromJunction="J6" toJunction="J7" end="300" vehsPerHour="65.68497407001163"/>
  <flow id="JF59088" begin="240" fromJunction="J6" toJunction="J5" end="300" vehsPerHour="62.2116244299675"/>
  <flow id="JF59089" begin="240" fromJunction="J6" toJunction="J4" end="300" vehsPerHour="41.88963062375714"/>
  <flow id="JF59090" begin="240" fromJunction="J5" toJunction="J7" end="300" vehsPerHour="38.50652405930096"/>
  <flow id="JF59091" begin="240" fromJunction="J5" toJunction="J6" end="300" vehsPerHour="28.896008772259822"/>
  <flow id="JF59092" begin="240" fromJunction="J5" toJunction="J4" end="300" vehsPerHour="9.81274501545011"/>
  <flow id="JF59093" begin="240" fromJunction="J4" toJunction="J7" end="300" vehsPerHour="56.92726722461624"/>
  <flow id="JF59094" begin="240" fromJunction="J4" toJunction="J6" end="300" vehsPerHour="9.242336031476484"/>
  <flow id="JF59095" begin="240" fromJunction="J4" toJunction="J5" end="300" vehsPerHour="59.97101555168565"/>
  <flow id="JF59096" begin="240" fromJunction="J7" toJunction="J0" end="300" vehsPerHour="14.03312280601495"/>
  <flow id="JF59097" begin="240" fromJunction="J7" toJunction="J3" end="300" vehsPerHour="15.051377757622877"/>
  <flow id="JF59098" begin="240" fromJunction="J6" toJunction="J0" end="300" vehsPerHour="64.07878997320188"/>
  <flow id="JF59099" begin="240" fromJunction="J6" toJunction="J3" end="300" vehsPerHour="33.091129366554384"/>
  <flow id="JF59100" begin="240" fromJunction="J5" toJunction="J0" end="300" vehsPerHour="51.16257903163516"/>
  <flow id="JF59101" begin="240" fromJunction="J5" toJunction="J3" end="300" vehsPerHour="6.799840081844869"/>
  <flow id="JF59102" begin="240" fromJunction="J4" toJunction="J0" end="300" vehsPerHour="64.08460162924699"/>
  <flow id="JF59103" begin="240" fromJunction="J4" toJunction="J3" end="300" vehsPerHour="60.951970509351085"/>
  <flow id="JF59104" begin="300" fromJunction="J0" toJunction="J3" end="360" vehsPerHour="470.5191574383034"/>
  <flow id="JF59105" begin="300" fromJunction="J3" toJunction="J0" end="360" vehsPerHour="147.1868479255475"/>
  <flow id="JF59106" begin="300" fromJunction="J0" toJunction="J7" end="360" vehsPerHour="106.50340412576092"/>
  <flow id="JF59107" begin="300" fromJunction="J0" toJunction="J6" end="360" vehsPerHour="123.29885302441683"/>
  <flow id="JF59108" begin="300" fromJunction="J0" toJunction="J5" end="360" vehsPerHour="96.31536036930704"/>
  <flow id="JF59109" begin="300" fromJunction="J0" toJunction="J4" end="360" vehsPerHour="132.66178789898916"/>
  <flow id="JF59110" begin="300" fromJunction="J3" toJunction="J7" end="360" vehsPerHour="82.48484667536611"/>
  <flow id="JF59111" begin="300" fromJunction="J3" toJunction="J6" end="360" vehsPerHour="45.73137759914763"/>
  <flow id="JF59112" begin="300" fromJunction="J3" toJunction="J5" end="360" vehsPerHour="19.087555349054668"/>
  <flow id="JF59113" begin="300" fromJunction="J3" toJunction="J4" end="360" vehsPerHour="7.201309979253568"/>
  <flow id="JF59114" begin="300" fromJunction="J7" toJunction="J6" end="360" vehsPerHour="47.28243041633959"/>
  <flow id="JF59115" begin="300" fromJunction="J7" toJunction="J5" end="360" vehsPerHour="38.80773549620359"/>
  <flow id="JF59116" begin="300" fromJunction="J7" toJunction="J4" end="360" vehsPerHour="65.18400028129462"/>
  <flow id="JF59117" begin="300" fromJunction="J6" toJunction="J7" end="360" vehsPerHour="14.904821332295196"/>
  <flow id="JF59118" begin="300" fromJunction="J6" toJunction="J5" end="360" vehsPerHour="58.215800519379385"/>
  <flow id="JF59119" begin="300" fromJunction="J6" toJunction="J4" end="360" vehsPerHour="24.60438684455411"/>
  <flow id="JF59120" begin="300" fromJunction="J5" toJunction="J7" end="360" vehsPerHour="19.690383928755196"/>
  <flow id="JF59121" begin="300" fromJunction="J5" toJunction="J6" end="360" vehsPerHour="45.7725236183525"/>
  <flow id="JF59122" begin="300" fromJunction="J5" toJunction="J4" end="360" vehsPerHour="37.13360913057574"/>
  <flow id="JF59123" begin="300" fromJunction="J4" toJunction="J7" end="360" vehsPerHour="36.130059575903985"/>
  <flow id="JF59124" begin="300" fromJunction="J4" toJunction="J6" end="360" vehsPerHour="16.73960025782769"/>
  <flow id="JF59125" begin="300" fromJunction="J4" toJunction="J5" end="360" vehsPerHour="50.73418064366359"/>
  <flow id="JF59126" begin="300" fromJunction="J7" toJunction="J0" end="360" vehsPerHour="8.094405621204464"/>
  <flow id="JF59127" begin="300" fromJunction="J7" toJunction="J3" end="360" vehsPerHour="61.1363351030329"/>
  <flow id="JF59128" begin="300" fromJunction="J6" toJunction="J0" end="360" vehsPerHour="48.159705646616835"/>
  <flow id="JF59129" begin="300" fromJunction="J6" toJunction="J3" end="360" vehsPerHour="20.538209858204954"/>
  <flow id="JF59130" begin="300" fromJunction="J5" toJunction="J0" end="360" vehsPerHour="54.114974735195645"/>
  <flow id="JF59131" begin="300" fromJunction="J5" toJunction="J3" end="360" vehsPerHour="6.100147342192552"/>
  <flow id="JF59132" begin="300" fromJunction="J4" toJunction="J0" end="360" vehsPerHour="67.79378299334407"/>
  <flow id="JF59133" begin="300" fromJunction="J4" toJunction="J3" end="360" vehsPerHour="33.78667011232673"/>
  <flow id="JF59134" begin="360" fromJunction="J0" toJunction="J3" end="420" vehsPerHour="113.648381551963"/>
  <flow id="JF59135" begin="360" fromJunction="J3" toJunction="J0" end="420" vehsPerHour="299.43107246200543"/>
  <flow id="JF59136" begin="360" fromJunction="J0" toJunction="J7" end="420" vehsPerHour="106.73372317680575"/>
  <flow id="JF59137" begin="360" fromJunction="J0" toJunction="J6" end="420" vehsPerHour="11.262715730214108"/>
  <flow id="JF59138" begin="360" fromJunction="J0" toJunction="J5" end="420" vehsPerHour="1.0924534034799336"/>
  <flow id="JF59139" begin="360" fromJunction="J0" toJunction="J4" end="420" vehsPerHour="110.02078746616235"/>
  <flow id="JF59140" begin="360" fromJunction="J3" toJunction="J7" end="420" vehsPerHour="9.535459741449552"/>
  <flow id="JF59141" begin="360" fromJunction="J3" toJunction="J6" end="420" vehsPerHour="98.63399495426984"/>
  <flow id="JF59142" begin="360" fromJunction="J3" toJunction="J5" end="420" vehsPerHour="120.14731119478776"/>
  <flow id="JF59143" begin="360" fromJunction="J3" toJunction="J4" end="420" vehsPerHour="55.79030529604224"/>
  <flow id="JF59144" begin="360" fromJunction="J7" toJunction="J6" end="420" vehsPerHour="61.30238187629873"/>
  <flow id="JF59145" begin="360" fromJunction="J7" toJunction="J5" end="420" vehsPerHour="47.75693432670587"/>
  <flow id="JF59146" begin="360" fromJunction="J7" toJunction="J4" end="420" vehsPerHour="66.24249423281738"/>
  <flow id="JF59147" begin="360" fromJunction="J6" toJunction="J7" end="420" vehsPerHour="0.14704475461570182"/>
  <flow id="JF59148" begin="360" fromJunction="J6" toJunction="J5" end="420" vehsPerHour="27.6170524482667"/>
  <flow id="JF59149" begin="360" fromJunction="J6" toJunction="J4" end="420" vehsPerHour="31.1884861834307"/>
  <flow id="JF59150" begin="360" fromJunction="J5" toJunction="J7" end="420" vehsPerHour="32.12710976712197"/>
  <flow id="JF59151" begin="360" fromJunction="J5" toJunction="J6" end="420" vehsPerHour="47.82932916675601"/>
  <flow id="JF59152" begin="360" fromJunction="J5" toJunction="J4" end="420" vehsPerHour="17.613811579619796"/>
  <flow id="JF59153" begin="360" fromJunction="J4" toJunction="J7" end="420" vehsPerHour="15.304377608873514"/>
  <flow id="JF59154" begin="360" fromJunction="J4" toJunction="J6" end="420" vehsPerHour="46.08900288606297"/>
  <flow id="JF59155" begin="360" fromJunction="J4" toJunction="J5" end="420" vehsPerHour="20.294843445700053"/>
  <flow id="JF59156" begin="360" fromJunction="J7" toJunction="J0" end="420" vehsPerHour="15.060775895468753"/>
  <flow id="JF59157" begin="360" fromJunction="J7" toJunction="J3" end="420" vehsPerHour="21.453189504552693"/>
  <flow id="JF59158" begin="360" fromJunction="J6" toJunction="J0" end="420" vehsPerHour="42.80522458682021"/>
  <flow id="JF59159" begin="360" fromJunction="J6" toJunction="J3" end="420" vehsPerHour="36.566527799036876"/>
  <flow id="JF59160" begin="360" fromJunction="J5" toJunction="J0" end="420" vehsPerHour="67.47327590857375"/>
  <flow id="JF59161" begin="360" fromJunction="J5" toJunction="J3" end="420" vehsPerHour="56.81423568786114"/>
  <flow id="JF59162" begin="360" fromJunction="J4" toJunction="J0" end="420" vehsPerHour="0.31857803700986087"/>
  <flow id="JF59163" begin="360" fromJunction="J4" toJunction="J3" end="420" vehsPerHour="58.6620777919622"/>
  <flow id="JF59164" begin="420" fromJunction="J0" toJunction="J3" end="480" vehsPerHour="22.845995166543027"/>
  <flow id="JF59165" begin="420" fromJunction="J3" toJunction="J0" end="480" vehsPerHour="288.45440953010177"/>
  <flow id="JF59166" begin="420" fromJunction="J0" toJunction="J7" end="480" vehsPerHour="93.54278994049274"/>
  <flow id="JF59167" begin="420" fromJunction="J0" toJunction="J6" end="480" vehsPerHour="15.64652307686859"/>
  <flow id="JF59168" begin="420" fromJunction="J0" toJunction="J5" end="480" vehsPerHour="25.86600688776603"/>
  <flow id="JF59169" begin="420" fromJunction="J0" toJunction="J4" end="480" vehsPerHour="72.19859016288339"/>
  <flow id="JF59170" begin="420" fromJunction="J3" toJunction="J7" end="480" vehsPerHour="132.3465434398535"/>
  <flow id="JF59171" begin="420" fromJunction="J3" toJunction="J6" end="480" vehsPerHour="36.60520382954198"/>
  <flow id="JF59172" begin="420" fromJunction="J3" toJunction="J5" end="480" vehsPerHour="82.78202600214577"/>
  <flow id="JF59173" begin="420" fromJunction="J3" toJunction="J4" end="480" vehsPerHour="101.99695851947048"/>
  <flow id="JF59174" begin="420" fromJunction="J7" toJunction="J6" end="480" vehsPerHour="59.19483916524358"/>
  <flow id="JF59175" begin="420" fromJunction="J7" toJunction="J5" end="480" vehsPerHour="44.13067046040048"/>
  <flow id="JF59176" begin="420" fromJunction="J7" toJunction="J4" end="480" vehsPerHour="4.792685157314121"/>
  <flow id="JF59177" begin="420" fromJunction="J6" toJunction="J7" end="480" vehsPerHour="19.199476004288158"/>
  <flow id="JF59178" begin="420" fromJunction="J6" toJunction="J5" end="480" vehsPerHour="48.25804016122124"/>
  <flow id="JF59179" begin="420" fromJunction="J6" toJunction="J4" end="480" vehsPerHour="54.57454337333413"/>
  <flow id="JF59180" begin="420" fromJunction="J5" toJunction="J7" end="480" vehsPerHour="57.881441601673735"/>
  <flow id="JF59181" begin="420" fromJunction="J5" toJunction="J6" end="480" vehsPerHour="33.834640615698014"/>
  <flow id="JF59182" begin="420" fromJunction="J5" toJunction="J4" end="480" vehsPerHour="57.89590839319224"/>
  <flow id="JF59183" begin="420" fromJunction="J4" toJunction="J7" end="480" vehsPerHour="1.8486413879461046"/>
  <flow id="JF59184" begin="420" fromJunction="J4" toJunction="J6" end="480" vehsPerHour="8.531194968048238"/>
  <flow id="JF59185" begin="420" fromJunction="J4" toJunction="J5" end="480" vehsPerHour="67.45509100729535"/>
  <flow id="JF59186" begin="420" fromJunction="J7" toJunction="J0" end="480" vehsPerHour="56.58070783607311"/>
  <flow id="JF59187" begin="420" fromJunction="J7" toJunction="J3" end="480" vehsPerHour="33.6486991534492"/>
  <flow id="JF59188" begin="420" fromJunction="J6" toJunction="J0" end="480" vehsPerHour="66.30774291502216"/>
  <flow id="JF59189" begin="420" fromJunction="J6" toJunction="J3" end="480" vehsPerHour="50.00156336332412"/>
  <flow id="JF59190" begin="420" fromJunction="J5" toJunction="J0" end="480" vehsPerHour="21.026257449667902"/>
  <flow id="JF59191" begin="420" fromJunction="J5" toJunction="J3" end="480" vehsPerHour="0.7758675600156301"/>
  <flow id="JF59192" begin="420" fromJunction="J4" toJunction="J0" end="480" vehsPerHour="12.988943836964726"/>
  <flow id="JF59193" begin="420" fromJunction="J4" toJunction="J3" end="480" vehsPerHour="65.02708248225427"/>
  <flow id="JF59194" begin="480" fromJunction="J0" toJunction="J3" end="540" vehsPerHour="58.907985465586904"/>
  <flow id="JF59195" begin="480" fromJunction="J3" toJunction="J0" end="540" vehsPerHour="297.64454192940366"/>
  <flow id="JF59196" begin="480" fromJunction="J0" toJunction="J7" end="540" vehsPerHour="90.17086840916659"/>
  <flow id="JF59197" begin="480" fromJunction="J0" toJunction="J6" end="540" vehsPerHour="63.65593648589847"/>
  <flow id="JF59198" begin="480" fromJunction="J0" toJunction="J5" end="540" vehsPerHour="33.80725659639338"/>
  <flow id="JF59199" begin="480" fromJunction="J0" toJunction="J4" end="540" vehsPerHour="118.85721952043554"/>
  <flow id="JF59200" begin="480" fromJunction="J3" toJunction="J7" end="540" vehsPerHour="8.04291657059309"/>
  <flow id="JF59201" begin="480" fromJunction="J3" toJunction="J6" end="540" vehsPerHour="79.63980392539183"/>
  <flow id="JF59202" begin="480" fromJunction="J3" toJunction="J5" end="540" vehsPerHour="65.16769563899341"/>
  <flow id="JF59203" begin="480" fromJunction="J3" toJunction="J4" end="540" vehsPerHour="101.59228417344438"/>
  <flow id="JF59204" begin="480" fromJunction="J7" toJunction="J6" end="540" vehsPerHour="29.92450834785288"/>
  <flow id="JF59205" begin="480" fromJunction="J7" toJunction="J5" end="540" vehsPerHour="61.21446427560302"/>
  <flow id="JF59206" begin="480" fromJunction="J7" toJunction="J4" end="540" vehsPerHour="35.12372492748085"/>
  <flow id="JF59207" begin="480" fromJunction="J6" toJunction="J7" end="540" vehsPerHour="48.858541877769014"/>
  <flow id="JF59208" begin="480" fromJunction="J6" toJunction="J5" end="540" vehsPerHour="0.860270664225599"/>
  <flow id="JF59209" begin="480" fromJunction="J6" toJunction="J4" end="540" vehsPerHour="50.090026049860136"/>
  <flow id="JF59210" begin="480" fromJunction="J5" toJunction="J7" end="540" vehsPerHour="62.70622381127394"/>
  <flow id="JF59211" begin="480" fromJunction="J5" toJunction="J6" end="540" vehsPerHour="47.852480289771"/>
  <flow id="JF59212" begin="480" fromJunction="J5" toJunction="J4" end="540" vehsPerHour="16.08517787165771"/>
  <flow id="JF59213" begin="480" fromJunction="J4" toJunction="J7" end="540" vehsPerHour="1.7159427001941026"/>
  <flow id="JF59214" begin="480" fromJunction="J4" toJunction="J6" end="540" vehsPerHour="61.149730418246236"/>
  <flow id="JF59215" begin="480" fromJunction="J4" toJunction="J5" end="540" vehsPerHour="45.0280550424176"/>
  <flow id="JF59216" begin="480" fromJunction="J7" toJunction="J0" end="540" vehsPerHour="39.55219572094922"/>
  <flow id="JF59217" begin="480" fromJunction="J7" toJunction="J3" end="540" vehsPerHour="8.079473587812522"/>
  <flow id="JF59218" begin="480" fromJunction="J6" toJunction="J0" end="540" vehsPerHour="33.97812679920562"/>
  <flow id="JF59219" begin="480" fromJunction="J6" toJunction="J3" end="540" vehsPerHour="31.20224033541088"/>
  <flow id="JF59220" begin="480" fromJunction="J5" toJunction="J0" end="540" vehsPerHour="2.7795029791023507"/>
  <flow id="JF59221" begin="480" fromJunction="J5" toJunction="J3" end="540" vehsPerHour="18.817308781115276"/>
  <flow id="JF59222" begin="480" fromJunction="J4" toJunction="J0" end="540" vehsPerHour="22.643583553352286"/>