<?xml version="1.0" encoding="UTF-8"?>
<routes xmlns:xsi="http://www.w3.org/2001/XMLSchema-instance" xsi:noNamespaceSchemaLocation="http://sumo.dlr.de/xsd/routes_file.xsd">
  <flow id="JF35094" begin="0" fromJunction="J0" toJunction="J3" end="60" vehsPerHour="256.05200218769585"/>
  <flow id="JF35095" begin="0" fromJunction="J3" toJunction="J0" end="60" vehsPerHour="185.61787993812774"/>
  <flow id="JF35096" begin="0" fromJunction="J0" toJunction="J7" end="60" vehsPerHour="91.7544058742068"/>
  <flow id="JF35097" begin="0" fromJunction="J0" toJunction="J6" end="60" vehsPerHour="22.43631770482055"/>
  <flow id="JF35098" begin="0" fromJunction="J0" toJunction="J5" end="60" vehsPerHour="94.43712903308707"/>
  <flow id="JF35099" begin="0" fromJunction="J0" toJunction="J4" end="60" vehsPerHour="92.11718994219457"/>
  <flow id="JF35100" begin="0" fromJunction="J3" toJunction="J7" end="60" vehsPerHour="33.111631943632595"/>
  <flow id="JF35101" begin="0" fromJunction="J3" toJunction="J6" end="60" vehsPerHour="49.04388731506522"/>
  <flow id="JF35102" begin="0" fromJunction="J3" toJunction="J5" end="60" vehsPerHour="77.55538227883233"/>
  <flow id="JF35103" begin="0" fromJunction="J3" toJunction="J4" end="60" vehsPerHour="104.14517140715262"/>
  <flow id="JF35104" begin="0" fromJunction="J7" toJunction="J6" end="60" vehsPerHour="37.48007555856103"/>
  <flow id="JF35105" begin="0" fromJunction="J7" toJunction="J5" end="60" vehsPerHour="66.02121801882922"/>
  <flow id="JF35106" begin="0" fromJunction="J7" toJunction="J4" end="60" vehsPerHour="29.531234716683926"/>
  <flow id="JF35107" begin="0" fromJunction="J6" toJunction="J7" end="60" vehsPerHour="30.95248452705698"/>
  <flow id="JF35108" begin="0" fromJunction="J6" toJunction="J5" end="60" vehsPerHour="67.81868965494613"/>
  <flow id="JF35109" begin="0" fromJunction="J6" toJunction="J4" end="60" vehsPerHour="34.7370793519137"/>
  <flow id="JF35110" begin="0" fromJunction="J5" toJunction="J7" end="60" vehsPerHour="62.74878062901232"/>
  <flow id="JF35111" begin="0" fromJunction="J5" toJunction="J6" end="60" vehsPerHour="27.737543689991956"/>
  <flow id="JF35112" begin="0" fromJunction="J5" toJunction="J4" end="60" vehsPerHour="41.59481834140162"/>
  <flow id="JF35113" begin="0" fromJunction="J4" toJunction="J7" end="60" vehsPerHour="9.542113241153086"/>
  <flow id="JF35114" begin="0" fromJunction="J4" toJunction="J6" end="60" vehsPerHour="53.71416233646264"/>
  <flow id="JF35115" begin="0" fromJunction="J4" toJunction="J5" end="60" vehsPerHour="43.871461205318624"/>
  <flow id="JF35116" begin="0" fromJunction="J7" toJunction="J0" end="60" vehsPerHour="19.64045061753623"/>
  <flow id="JF35117" begin="0" fromJunction="J7" toJunction="J3" end="60" vehsPerHour="26.622985546326404"/>
  <flow id="JF35118" begin="0" fromJunction="J6" toJunction="J0" end="60" vehsPerHour="28.19329379599905"/>
  <flow id="JF35119" begin="0" fromJunction="J6" toJunction="J3" end="60" vehsPerHour="67.00130656390779"/>
  <flow id="JF35120" begin="0" fromJunction="J5" toJunction="J0" end="60" vehsPerHour="62.34696508818552"/>
  <flow id="JF35121" begin="0" fromJunction="J5" toJunction="J3" end="60" vehsPerHour="58.75646718039744"/>
  <flow id="JF35122" begin="0" fromJunction="J4" toJunction="J0" end="60" vehsPerHour="31.633000459252923"/>
  <flow id="JF35123" begin="0" fromJunction="J4" toJunction="J3" end="60" vehsPerHour="46.72725976483125"/>
  <flow id="JF35124" begin="60" fromJunction="J0" toJunction="J3" end="120" vehsPerHour="459.7538736963131"/>
  <flow id="JF35125" begin="60" fromJunction="J3" toJunction="J0" end="120" vehsPerHour="447.96372096934704"/>
  <flow id="JF35126" begin="60" fromJunction="J0" toJunction="J7" end="120" vehsPerHour="5.16855059181121"/>
  <flow id="JF35127" begin="60" fromJunction="J0" toJunction="J6" end="120" vehsPerHour="73.79480620393034"/>
  <flow id="JF35128" begin="60" fromJunction="J0" toJunction="J5" end="120" vehsPerHour="61.070579416582156"/>
  <flow id="JF35129" begin="60" fromJunction="J0" toJunction="J4" end="120" vehsPerHour="3.6883651911639386"/>
  <flow id="JF35130" begin="60" fromJunction="J3" toJunction="J7" end="120" vehsPerHour="9.527912925933009"/>
  <flow id="JF35131" begin="60" fromJunction="J3" toJunction="J6" end="120" vehsPerHour="119.92476109735274"/>
  <flow id="JF35132" begin="60" fromJunction="J3" toJunction="J5" end="120" vehsPerHour="41.4945647356134"/>
  <flow id="JF35133" begin="60" fromJunction="J3" toJunction="J4" end="120" vehsPerHour="12.715790640097842"/>
  <flow id="JF35134" begin="120" fromJunction="J0" toJunction="J3" end="180" vehsPerHour="239.80822026516944"/>
  <flow id="JF35135" begin="120" fromJunction="J3" toJunction="J0" end="180" vehsPerHour="57.97672070739791"/>
  <flow id="JF35136" begin="120" fromJunction="J0" toJunction="J7" end="180" vehsPerHour="41.427600076362395"/>
  <flow id="JF35137" begin="120" fromJunction="J0" toJunction="J6" end="180" vehsPerHour="101.01580408797317"/>
  <flow id="JF35138" begin="120" fromJunction="J0" toJunction="J5" end="180" vehsPerHour="111.51632112039547"/>
  <flow id="JF35139" begin="120" fromJunction="J0" toJunction="J4" end="180" vehsPerHour="26.17310232435851"/>
  <flow id="JF35140" begin="120" fromJunction="J3" toJunction="J7" end="180" vehsPerHour="56.54888416598668"/>
  <flow id="JF35141" begin="120" fromJunction="J3" toJunction="J6" end="180" vehsPerHour="30.778091251123065"/>
  <flow id="JF35142" begin="120" fromJunction="J3" toJunction="J5" end="180" vehsPerHour="7.4116248857076625"/>
  <flow id="JF35143" begin="120" fromJunction="J3" toJunction="J4" end="180" vehsPerHour="87.78669415409679"/>
  <flow id="JF35144" begin="180" fromJunction="J0" toJunction="J3" end="240" vehsPerHour="141.28265185236148"/>
  <flow id="JF35145" begin="180" fromJunction="J3" toJunction="J0" end="240" vehsPerHour="512.5066748992767"/>
  <flow id="JF35146" begin="180" fromJunction="J0" toJunction="J7" end="240" vehsPerHour="22.34444465636596"/>
  <flow id="JF35147" begin="180" fromJunction="J0" toJunction="J6" end="240" vehsPerHour="136.66415531999056"/>
  <flow id="JF35148" begin="180" fromJunction="J0" toJunction="J5" end="240" vehsPerHour="69.63223694851933"/>
  <flow id="JF35149" begin="180" fromJunction="J0" toJunction="J4" end="240" vehsPerHour="70.97033047273348"/>
  <flow id="JF35150" begin="180" fromJunction="J3" toJunction="J7" end="240" vehsPerHour="12.929338559034003"/>
  <flow id="JF35151" begin="180" fromJunction="J3" toJunction="J6" end="240" vehsPerHour="50.367750063981624"/>
  <flow id="JF35152" begin="180" fromJunction="J3" toJunction="J5" end="240" vehsPerHour="124.6734296222934"/>
  <flow id="JF35153" begin="180" fromJunction="J3" toJunction="J4" end="240" vehsPerHour="120.25836109336294"/>
  <flow id="JF35154" begin="180" fromJunction="J7" toJunction="J6" end="240" vehsPerHour="56.174898000053176"/>
  <flow id="JF35155" begin="180" fromJunction="J7" toJunction="J5" end="240" vehsPerHour="45.359310167636124"/>
  <flow id="JF35156" begin="180" fromJunction="J7" toJunction="J4" end="240" vehsPerHour="16.22082093379486"/>
  <flow id="JF35157" begin="180" fromJunction="J6" toJunction="J7" end="240" vehsPerHour="8.859864548001987"/>
  <flow id="JF35158" begin="180" fromJunction="J6" toJunction="J5" end="240" vehsPerHour="57.368653848455345"/>
  <flow id="JF35159" begin="180" fromJunction="J6" toJunction="J4" end="240" vehsPerHour="30.661000265969637"/>
  <flow id="JF35160" begin="180" fromJunction="J5" toJunction="J7" end="240" vehsPerHour="68.65589500368596"/>
  <flow id="JF35161" begin="180" fromJunction="J5" toJunction="J6" end="240" vehsPerHour="7.4320248909340165"/>
  <flow id="JF35162" begin="180" fromJunction="J5" toJunction="J4" end="240" vehsPerHour="13.226607034972524"/>
  <flow id="JF35163" begin="180" fromJunction="J4" toJunction="J7" end="240" vehsPerHour="53.51041054565386"/>
  <flow id="JF35164" begin="180" fromJunction="J4" toJunction="J6" end="240" vehsPerHour="66.49992115555655"/>
  <flow id="JF35165" begin="180" fromJunction="J4" toJunction="J5" end="240" vehsPerHour="63.87258959479885"/>
  <flow id="JF35166" begin="180" fromJunction="J7" toJunction="J0" end="240" vehsPerHour="21.18103971294101"/>
  <flow id="JF35167" begin="180" fromJunction="J7" toJunction="J3" end="240" vehsPerHour="31.873972503293626"/>
  <flow id="JF35168" begin="180" fromJunction="J6" toJunction="J0" end="240" vehsPerHour="50.3015726911963"/>
  <flow id="JF35169" begin="180" fromJunction="J6" toJunction="J3" end="240" vehsPerHour="23.88910125277799"/>
  <flow id="JF35170" begin="180" fromJunction="J5" toJunction="J0" end="240" vehsPerHour="8.941774130751462"/>
  <flow id="JF35171" begin="180" fromJunction="J5" toJunction="J3" end="240" vehsPerHour="45.31385740607759"/>
  <flow id="JF35172" begin="180" fromJunction="J4" toJunction="J0" end="240" vehsPerHour="46.240511959395434"/>
  <flow id="JF35173" begin="180" fromJunction="J4" toJunction="J3" end="240" vehsPerHour="50.14695500707195"/>
  <flow id="JF35174" begin="240" fromJunction="J0" toJunction="J3" end="300" vehsPerHour="377.78828746471214"/>
  <flow id="JF35175" begin="240" fromJunction="J3" toJunction="J0" end="300" vehsPerHour="42.26787138708758"/>
  <flow id="JF35176" begin="240" fromJunction="J0" toJunction="J7" end="300" vehsPerHour="128.1565699320489"/>
  <flow id="JF35177" begin="240" fromJunction="J0" toJunction="J6" end="300" vehsPerHour="73.3034158947512"/>
  <flow id="JF35178" begin="240" fromJunction="J0" toJunction="J5" end="300" vehsPerHour="75.16030496138472"/>
  <flow id="JF35179" begin="240" fromJunction="J0" toJunction="J4" end="300" vehsPerHour="10.050894550749808"/>
  <flow id="JF35180" begin="240" fromJunction="J3" toJunction="J7" end="300" vehsPerHour="76.76615543245542"/>
  <flow id="JF35181" begin="240" fromJunction="J3" toJunction="J6" end="300" vehsPerHour="27.54778472505265"/>
  <flow id="JF35182" begin="240" fromJunction="J3" toJunction="J5" end="300" vehsPerHour="42.45372713268897"/>
  <flow id="JF35183" begin="240" fromJunction="J3" toJunction="J4" end="300" vehsPerHour="76.88176406974284"/>
  <flow id="JF35184" begin="240" fromJunction="J7" toJunction="J6" end="300" vehsPerHour="25.699568638569087"/>
  <flow id="JF35185" begin="240" fromJunction="J7" toJunction="J5" end="300" vehsPerHour="23.493988171840147"/>
  <flow id="JF35186" begin="240" fromJunction="J7" toJunction="J4" end="300" vehsPerHour="48.361784488294326"/>
  <flow id="JF35187" begin="240" fromJunction="J6" toJunction="J7" end="300" vehsPerHour="53.05158783990276"/>
  <flow id="JF35188" begin="240" fromJunction="J6" toJunction="J5" end="300" vehsPerHour="54.69561519412251"/>
  <flow id="JF35189" begin="240" fromJunction="J6" toJunction="J4" end="300" vehsPerHour="33.89910300512724"/>
  <flow id="JF35190" begin="240" fromJunction="J5" toJunction="J7" end="300" vehsPerHour="27.408064841945215"/>
  <flow id="JF35191" begin="240" fromJunction="J5" toJunction="J6" end="300" vehsPerHour="65.25436601524245"/>
  <flow id="JF35192" begin="240" fromJunction="J5" toJunction="J4" end="300" vehsPerHour="21.084414110904007"/>
  <flow id="JF35193" begin="240" fromJunction="J4" toJunction="J7" end="300" vehsPerHour="36.68417748225864"/>
  <flow id="JF35194" begin="240" fromJunction="J4" toJunction="J6" end="300" vehsPerHour="59.02427843579945"/>
  <flow id="JF35195" begin="240" fromJunction="J4" toJunction="J5" end="300" vehsPerHour="20.47619629918223"/>
  <flow id="JF35196" begin="240" fromJunction="J7" toJunction="J0" end="300" vehsPerHour="38.876200507917986"/>
  <flow id="JF35197" begin="240" fromJunction="J7" toJunction="J3" end="300" vehsPerHour="25.511027363039542"/>
  <flow id="JF35198" begin="240" fromJunction="J6" toJunction="J0" end="300" vehsPerHour="37.159226998101104"/>
  <flow id="JF35199" begin="240" fromJunction="J6" toJunction="J3" end="300" vehsPerHour="15.22538866789026"/>
  <flow id="JF35200" begin="240" fromJunction="J5" toJunction="J0" end="300" vehsPerHour="30.08796638212679"/>
  <flow id="JF35201" begin="240" fromJunction="J5" toJunction="J3" end="300" vehsPerHour="61.473098036526906"/>
  <flow id="JF35202" begin="240" fromJunction="J4" toJunction="J0" end="300" vehsPerHour="22.563443703841166"/>
  <flow id="JF35203" begin="240" fromJunction="J4" toJunction="J3" end="300" vehsPerHour="17.844818028688113"/>
  <flow id="JF35204" begin="300" fromJunction="J0" toJunction="J3" end="360" vehsPerHour="339.12121943058287"/>
  <flow id="JF35205" begin="300" fromJunction="J3" toJunction="J0" end="360" vehsPerHour="434.82836764253324"/>
  <flow id="JF35206" begin="300" fromJunction="J0" toJunction="J7" end="360" vehsPerHour="32.858821172121466"/>
  <flow id="JF35207" begin="300" fromJunction="J0" toJunction="J6" end="360" vehsPerHour="57.0693846851566"/>
  <flow id="JF35208" begin="300" fromJunction="J0" toJunction="J5" end="360" vehsPerHour="6.813138726345089"/>
  <flow id="JF35209" begin="300" fromJunction="J0" toJunction="J4" end="360" vehsPerHour="58.738077287060456"/>
  <flow id="JF35210" begin="300" fromJunction="J3" toJunction="J7" end="360" vehsPerHour="40.222350545134816"/>
  <flow id="JF35211" begin="300" fromJunction="J3" toJunction="J6" end="360" vehsPerHour="49.44675002433591"/>
  <flow id="JF35212" begin="300" fromJunction="J3" toJunction="J5" end="360" vehsPerHour="77.80391382724251"/>
  <flow id="JF35213" begin="300" fromJunction="J3" toJunction="J4" end="360" vehsPerHour="130.60560206520498"/>
  <flow id="JF35214" begin="300" fromJunction="J7" toJunction="J6" end="360" vehsPerHour="46.78417547101582"/>
  <flow id="JF35215" begin="300" fromJunction="J7" toJunction="J5" end="360" vehsPerHour="20.143144090610384"/>
  <flow id="JF35216" begin="300" fromJunction="J7" toJunction="J4" end="360" vehsPerHour="15.537185968098294"/>
  <flow id="JF35217" begin="300" fromJunction="J6" toJunction="J7" end="360" vehsPerHour="53.35069408115419"/>
  <flow id="JF35218" begin="300" fromJunction="J6" toJunction="J5" end="360" vehsPerHour="50.57114830179657"/>
  <flow id="JF35219" begin="300" fromJunction="J6" toJunction="J4" end="360" vehsPerHour="37.00012541214764"/>
  <flow id="JF35220" begin="300" fromJunction="J5" toJunction="J7" end="360" vehsPerHour="43.50575395460787"/>
  <flow id="JF35221" begin="300" fromJunction="J5" toJunction="J6" end="360" vehsPerHour="46.69329243640284"/>
  <flow id="JF35222" begin="300" fromJunction="J5" toJunction="J4" end="360" vehsPerHour="35.83759641005894"/>
  <flow id="JF35223" begin="300" fromJunction="J4" toJunction="J7" end="360" vehsPerHour="32.83243465021829"/>
  <flow id="JF35224" begin="300" fromJunction="J4" toJunction="J6" end="360" vehsPerHour="17.17891929009956"/>
  <flow id="JF35225" begin="300" fromJunction="J4" toJunction="J5" end="360" vehsPerHour="45.186342144162715"/>
  <flow id="JF35226" begin="300" fromJunction="J7" toJunction="J0" end="360" vehsPerHour="61.285202689767914"/>
  <flow id="JF35227" begin="300" fromJunction="J7" toJunction="J3" end="360" vehsPerHour="57.49854299208313"/>
  <flow id="JF35228" begin="300" fromJunction="J6" toJunction="J0" end="360" vehsPerHour="14.832651832473623"/>
  <flow id="JF35229" begin="300" fromJunction="J6" toJunction="J3" end="360" vehsPerHour="4.225117699113706"/>
  <flow id="JF35230" begin="300" fromJunction="J5" toJunction="J0" end="360" vehsPerHour="50.01220567172754"/>
  <flow id="JF35231" begin="300" fromJunction="J5" toJunction="J3" end="360" vehsPerHour="15.017582727682509"/>
  <flow id="JF35232" begin="300" fromJunction="J4" toJunction="J0" end="360" vehsPerHour="35.78780246373016"/>
  <flow id="JF35233" begin="300" fromJunction="J4" toJunction="J3" end="360" vehsPerHour="23.806315649782075"/>
  <flow id="JF35234" begin="360" fromJunction="J0" toJunction="J3" end="420" vehsPerHour="12.28581497734692"/>
  <flow id="JF35235" begin="360" fromJunction="J3" toJunction="J0" end="420" vehsPerHour="165.52123958118082"/>
  <flow id="JF35236" begin="360" fromJunction="J0" toJunction="J7" end="420" vehsPerHour="88.13292538441308"/>
  <flow id="JF35237" begin="360" fromJunction="J0" toJunction="J6" end="420" vehsPerHour="72.34915123260681"/>
  <flow id="JF35238" begin="360" fromJunction="J0" toJunction="J5" end="420" vehsPerHour="74.72814054351907"/>
  <flow id="JF35239" begin="360" fromJunction="J0" toJunction="J4" end="420" vehsPerHour="53.05145071415844"/>
  <flow id="JF35240" begin="360" fromJunction="J3" toJunction="J7" end="420" vehsPerHour="89.67232904558905"/>
  <flow id="JF35241" begin="360" fromJunction="J3" toJunction="J6" end="420" vehsPerHour="61.26521135593457"/>
  <flow id="JF35242" begin="360" fromJunction="J3" toJunction="J5" end="420" vehsPerHour="36.1218873792018"/>
  <flow id="JF35243" begin="360" fromJunction="J3" toJunction="J4" end="420" vehsPerHour="35.883087264990856"/>
  <flow id="JF35244" begin="360" fromJunction="J7" toJunction="J6" end="420" vehsPerHour="15.289205823419742"/>
  <flow id="JF35245" begin="360" fromJunction="J7" toJunction="J5" end="420" vehsPerHour="1.1729444336336374"/>
  <flow id="JF35246" begin="360" fromJunction="J7" toJunction="J4" end="420" vehsPerHour="2.121333674633754"/>
  <flow id="JF35247" begin="360" fromJunction="J6" toJunction="J7" end="420" vehsPerHour="30.23945737365166"/>
  <flow id="JF35248" begin="360" fromJunction="J6" toJunction="J5" end="420" vehsPerHour="50.17896576323893"/>
  <flow id="JF35249" begin="360" fromJunction="J6" toJunction="J4" end="420" vehsPerHour="14.925702571838755"/>
  <flow id="JF35250" begin="360" fromJunction="J5" toJunction="J7" end="420" vehsPerHour="6.648773719519293"/>
  <flow id="JF35251" begin="360" fromJunction="J5" toJunction="J6" end="420" vehsPerHour="11.057748325571307"/>
  <flow id="JF35252" begin="360" fromJunction="J5" toJunction="J4" end="420" vehsPerHour="23.304231880543824"/>
  <flow id="JF35253" begin="360" fromJunction="J4" toJunction="J7" end="420" vehsPerHour="34.26370773989826"/>
  <flow id="JF35254" begin="360" fromJunction="J4" toJunction="J6" end="420" vehsPerHour="9.962686284280073"/>
  <flow id="JF35255" begin="360" fromJunction="J4" toJunction="J5" end="420" vehsPerHour="25.277477448317153"/>
  <flow id="JF35256" begin="360" fromJunction="J7" toJunction="J0" end="420" vehsPerHour="58.90088685763987"/>
  <flow id="JF35257" begin="360" fromJunction="J7" toJunction="J3" end="420" vehsPerHour="11.737008853932457"/>
  <flow id="JF35258" begin="360" fromJunction="J6" toJunction="J0" end="420" vehsPerHour="65.30880175269151"/>
  <flow id="JF35259" begin="360" fromJunction="J6" toJunction="J3" end="420" vehsPerHour="46.49911184261498"/>
  <flow id="JF35260" begin="360" fromJunction="J5" toJunction="J0" end="420" vehsPerHour="24.331958415784207"/>
  <flow id="JF35261" begin="360" fromJunction="J5" toJunction="J3" end="420" vehsPerHour="1.6163471840778831"/>
  <flow id="JF35262" begin="360" fromJunction="J4" toJunction="J0" end="420" vehsPerHour="52.00525645048288"/>
  <flow id="JF35263" begin="360" fromJunction="J4" toJunction="J3" end="420" vehsPerHour="38.381810101403715"/>
  <flow id="JF35264" begin="420" fromJunction="J0" toJunction="J3" end="480" vehsPerHour="342.61301519130416"/>
  <flow id="JF35265" begin="420" fromJunction="J3" toJunction="J0" end="480" vehsPerHour="253.66214672158793"/>
  <flow id="JF35266" begin="420" fromJunction="J0" toJunction="J7" end="480" vehsPerHour="80.18326694901967"/>
  <flow id="JF35267" begin="420" fromJunction="J0" toJunction="J6" end="480" vehsPerHour="6.800600243350703"/>
  <flow id="JF35268" begin="420" fromJunction="J0" toJunction="J5" end="480" vehsPerHour="6.0183091321294535"/>
  <flow id="JF35269" begin="420" fromJunction="J0" toJunction="J4" end="480" vehsPerHour="84.08659694462968"/>
  <flow id="JF35270" begin="420" fromJunction="J3" toJunction="J7" end="480" vehsPerHour="2.6716470724414894"/>
  <flow id="JF35271" begin="420" fromJunction="J3" toJunction="J6" end="480" vehsPerHour="112.32288154633976"/>
  <flow id="JF35272" begin="420" fromJunction="J3" toJunction="J5" end="480" vehsPerHour="54.23499712495963"/>
  <flow id="JF35273" begin="420" fromJunction="J3" toJunction="J4" end="480" vehsPerHour="109.3295073394264"/>
  <flow id="JF35274" begin="420" fromJunction="J7" toJunction="J6" end="480" vehsPerHour="29.379834265114752"/>
  <flow id="JF35275" begin="420" fromJunction="J7" toJunction="J5" end="480" vehsPerHour="54.06105362361075"/>
  <flow id="JF35276" begin="420" fromJunction="J7" toJunction="J4" end="480" vehsPerHour="39.22721141076286"/>
  <flow id="JF35277" begin="420" fromJunction="J6" toJunction="J7" end="480" vehsPerHour="59.73390366988828"/>
  <flow id="JF35278" begin="420" fromJunction="J6" toJunction="J5" end="480" vehsPerHour="54.338039653063824"/>
  <flow id="JF35279" begin="420" fromJunction="J6" toJunction="J4" end="480" vehsPerHour="44.30311789000866"/>
  <flow id="JF35280" begin="420" fromJunction="J5" toJunction="J7" end="480" vehsPerHour="19.208760553173448"/>
  <flow id="JF35281" begin="420" fromJunction="J5" toJunction="J6" end="480" vehsPerHour="24.703049187311244"/>
  <flow id="JF35282" begin="420" fromJunction="J5" toJunction="J4" end="480" vehsPerHour="16.78416622758701"/>
  <flow id="JF35283" begin="420" fromJunction="J4" toJunction="J7" end="480" vehsPerHour="13.124558643067548"/>
  <flow id="JF35284" begin="420" fromJunction="J4" toJunction="J6" end="480" vehsPerHour="54.61786437127282"/>
  <flow id="JF35285" begin="420" fromJunction="J4" toJunction="J5" end="480" vehsPerHour="51.14620438615606"/>
  <flow id="JF35286" begin="420" fromJunction="J7" toJunction="J0" end="480" vehsPerHour="5.1126498954316935"/>
  <flow id="JF35287" begin="420" fromJunction="J7" toJunction="J3" end="480" vehsPerHour="44.034298452005594"/>
  <flow id="JF35288" begin="420" fromJunction="J6" toJunction="J0" end="480" vehsPerHour="24.675042718440327"/>
  <flow id="JF35289" begin="420" fromJunction="J6" toJunction="J3" end="480" vehsPerHour="38.79052534280809"/>
  <flow id="JF35290" begin="420" fromJunction="J5" toJunction="J0" end="480" vehsPerHour="12.057779211542183"/>
  <flow id="JF35291" begin="420" fromJunction="J5" toJunction="J3" end="480" vehsPerHour="31.624758429675012"/>
  <flow id="JF35292" begin="420" fromJunction="J4" toJunction="J0" end="480" vehsPerHour="60.54858966448622"/>
  <flow id="JF35293" begin="420" fromJunction="J4" toJunction="J3" end="480" vehsPerHour="14.879915322213433"/>
  <flow id="JF35294" begin="480" fromJunction="J0" toJunction="J3" end="540" vehsPerHour="100.09962812547776"/>
  <flow id="JF35295" begin="480" fromJunction="J3" toJunction="J0" end="540" vehsPerHour="74.99005877916555"/>
  <flow id="JF35296" begin="480" fromJunction="J0" toJunction="J7" end="540" vehsPerHour="108.56377723166732"/>
  <flow id="JF35297" begin="480" fromJunction="J0" toJunction="J6" end="540" vehsPerHour="4.875217380940197"/>
  <flow id="JF35298" begin="480" fromJunction="J0" toJunction="J5" end="540" vehsPerHour="83.7587852316744"/>
  <flow id="JF35299" begin="480" fromJunction="J0" toJunction="J4" end="540" vehsPerHour="38.836635308467834"/>
  <flow id="JF35300" begin="480" fromJunction="J3" toJunction="J7" end="540" vehsPerHour="83.29208493843805"/>
  <flow id="JF35301" begin="480" fromJunction="J3" toJunction="J6" end="540" vehsPerHour="30.991632175714333"/>
  <flow id="JF35302" begin="480" fromJunction="J3" toJunction="J5" end="540" vehsPerHour="2.8480443438029255"/>
  <flow id="JF35303" begin="480" fromJunction="J3" toJunction="J4" end="540" vehsPerHour="64.0731801482575"/>
  <flow id="JF35304" begin="480" fromJunction="J7" toJunction="J6" end="540" vehsPerHour="61.33546245130164"/>
  <flow id="JF35305" begin="480" fromJunction="J7" toJunction="J5" end="540" vehsPerHour="32.59885227502292"/>
  <flow id="JF35306" begin="480" fromJunction="J7" toJunction="J4" end="540" vehsPerHour="17.078308122349064"/>
  <flow id="JF35307" begin="480" fromJunction="J6" toJunction="J7" end="540" vehsPerHour="31.49760074600599"/>
  <flow id="JF35308" begin="480" fromJunction="J6" toJunction="J5" end="540" vehsPerHour="4.500684986687711"/>
  <flow id="JF35309" begin="480" fromJunction="J6" toJunction="J4" end="540" vehsPerHour="47.61986126659199"/>
  <flow id="JF35310" begin="480" fromJunction="J5" toJunction="J7" end="540" vehsPerHour="43.73206314627855"/>
  <flow id="JF35311" begin="480" fromJunction="J5" toJunction="J6" end="540" vehsPerHour="21.199693005371973"/>
  <flow id="JF35312" begin="480" fromJunction="J5" toJunction="J4" end="540" vehsPerHour="24.25997781789227"/>
  <flow id="JF35313" begin="480" fromJunction="J4" toJunction="J7" end="540" vehsPerHour="63.35949480005079"/>
  <flow id="JF35314" begin="480" fromJunction="J4" toJunction="J6" end="540" vehsPerHour="37.35822318430409"/>
  <flow id="JF35315" begin="480" fromJunction="J4" toJunction="J5" end="540" vehsPerHour="35.23370921349444"/>
  <flow id="JF35316" begin="480" fromJunction="J7" toJunction="J0" end="540" vehsPerHour="57.38620652197813"/>
  <flow id="JF35317" begin="480" fromJunction="J7" toJunction="J3" end="540" vehsPerHour="61.476661689522146"/>
  <flow id="JF35318" begin="480" fromJunction="J6" toJunction="J0" end="540" vehsPerHour="63.78382531334687"/>
  <flow id="JF35319" begin="480" fromJunction="J6" toJunction="J3" end="540" vehsPerHour="65.21241233858694"/>
  <flow id="JF35320" begin="480" fromJunction="J5" toJunction="J0" end="540" vehsPerHour="20.130988199169863"/>
  <flow id="JF35321" begin="480" fromJunction="J5" toJunction="J3" end="540" vehsPerHour="24.152096388720384"/>
  <flow id="JF35322" begin="480" fromJunction="J4" toJunction="J0" end="540" vehsPerHour="20.988018311212752"/>
  <flow id="JF35323" begin="480" fromJunction="J4" toJunction="J3" end="540" vehsPerHour="26.229582855577647"/>
  <flow id="JF35324" begin="540" fromJunction="J0" toJunction="J3" end="600" vehsPerHour="310.701811961125"/>
  <flow id="JF35325" begin="540" fromJunction="J3" toJunction="J0" end="600" vehsPerHour="178.07730102129025"/>
  <flow id="JF35326" begin="540" fromJunction="J0" toJunction="J7" end="600" vehsPerHour="98.63305487945628"/>
  <flow id="JF35327" begin="540" fromJunction="J0" toJunction="J6" end="600" vehsPerHour="127.02930541842196"/>
  <flow id="JF35328" begin="540" fromJunction="J0" toJunction="J5" end="600" vehsPerHour="51.60379515499154"/>
  <flow id="JF35329" begin="540" fromJunction="J0" toJunction="J4" end="600" vehsPerHour="92.0486134026594"/>
  <flow id="JF35330" begin="540" fromJunction="J3" toJunction="J7" end="600" vehsPerHour="56.70854495096195"/>
  <flow id="JF35331" begin="540" fromJunction="J3" toJunction="J6" end="600" vehsPerHour="81.09651821128223"/>
  <flow id="JF35332" begin="540" fromJunction="J3" toJunction="J5" end="600" vehsPerHour="55.64957648058703"/>
  <flow id="JF35333" begin="540" fromJunction="J3" toJunction="J4" end="600" vehsPerHour="63.36533582777888"/>
  <flow id="JF35334" begin="600" fromJunction="J0" toJunction="J3" end="660" vehsPerHour="138.86496671375593"/>
  <flow id="JF35335" begin="600" fromJunction="J3" toJunction="J0" end="660" vehsPerHour="282.062212177669"/>
  <flow id="JF35336" begin="600" fromJunction="J0" toJunction="J7" end="660" vehsPerHour="2.6254189010615523"/>
  <flow id="JF35337" begin="600" fromJunction="J0" toJunction="J6" end="660" vehsPerHour="102.00487443106219"/>
  <flow id="JF35338" begin="600" fromJunction="J0" toJunction="J5" end="660" vehsPerHour="46.499984290002324"/>
  <flow id="JF35339" begin="600" fromJunction="J0" toJunction="J4" end="660" vehsPerHour="110.39220897891981"/>
  <flow id="JF35340" begin="600" fromJunction="J3" toJunction="J7" end="660" vehsPerHour="50.508340986878075"/>
  <flow id="JF35341" begin="600" fromJunction="J3" toJunction="J6" end="660" vehsPerHour="107.04597534349604"/>
  <flow id="JF35342" begin="600" fromJunction="J3" toJunction="J5" end="660" vehsPerHour="115.75825170005754"/>
  <flow id="JF35343" begin="600" fromJunction="J3" toJunction="J4" end="660" vehsPerHour="107.2345158588964"/>
  <flow id="JF35344" begin="600" fromJunction="J7" toJunction="J6" end="660" vehsPerHour="1.7778579926998157"/>
  <flow id="JF35345" begin="600" fromJunction="J7" toJunction="J5" end="660" vehsPerHour="40.31421081936104"/>
  <flow id="JF35346" begin="600" fromJunction="J7" toJunction="J4" end="660" vehsPerHour="25.755933538505936"/>
  <flow id="JF35347" begin="600" fromJunction="J6" toJunction="J7" end="660" vehsPerHour="64.36164566256886"/>
  <flow id="JF35348" begin="600" fromJunction="J6" toJunction="J5" end="660" vehsPerHour="14.026034777898408"/>
  <flow id="JF35349" begin="600" fromJunction="J6" toJunction="J4" end="660" vehsPerHour="34.612785008284234"/>
  <flow id="JF35350" begin="600" fromJunction="J5" toJunction="J7" end="660" vehsPerHour="33.65439337943415"/>
  <flow id="JF35351" begin="600" fromJunction="J5" toJunction="J6" end="660" vehsPerHour="52.50323534942974"/>
  <flow id="JF35352" begin="600" fromJunction="J5" toJunction="J4" end="660" vehsPerHour="16.59664761737545"/>
  <flow id="JF35353" begin="600" fromJunction="J4" toJunction="J7" end="660" vehsPerHour="17.476340018967576"/>
  <flow id="JF35354" begin="600" fromJunction="J4" toJunction="J6" end="660" vehsPerHour="36.20856879128406"/>
  <flow id="JF35355" begin="600" fromJunction="J4" toJunction="J5" end="660" vehsPerHour="30.048716463230612"/>
  <flow id="JF35356" begin="600" fromJunction="J7" toJunction="J0" end="660" vehsPerHour="35.937713434166355"/>
  <flow id="JF35357" begin="600" fromJunction="J7" toJunction="J3" end="660" vehsPerHour="0.7994110189337228"/>
  <flow id="JF35358" begin="600" fromJunction="J6" toJunction="J0" end="660" vehsPerHour="18.73225881949058"/>
  <flow id="JF35359" begin="600" fromJunction="J6" toJunction="J3" end="660" vehsPerHour="6.9401123050397455"/>
  <flow id="JF35360" begin="600" fromJunction="J5" toJunction="J0" end="660" vehsPerHour="40.28403041962666"/>
  <flow id="JF35361" begin="600" fromJunction="J5" toJunction="J3" end="660" vehsPerHour="65.52340634838234"/>