<?xml version="1.0" encoding="UTF-8"?>
<routes xmlns:xsi="http://www.w3.org/2001/XMLSchema-instance" xsi:noNamespaceSchemaLocation="http://sumo.dlr.de/xsd/routes_file.xsd">
  <flow id="JF46934" begin="0" fromJunction="J0" toJunction="J3" end="60" vehsPerHour="377.46733945931175"/>
  <flow id="JF46935" begin="0" fromJunction="J3" toJunction="J0" end="60" vehsPerHour="50.52386995779471"/>
  <flow id="JF46936" begin="0" fromJunction="J0" toJunction="J7" end="60" vehsPerHour="88.11038227275598"/>
  <flow id="JF46937" begin="0" fromJunction="J0" toJunction="J6" end="60" vehsPerHour="98.52457910448325"/>
  <flow id="JF46938" begin="0" fromJunction="J0" toJunction="J5" end="60" vehsPerHour="72.4935539549451"/>
  <flow id="JF46939" begin="0" fromJunction="J0" toJunction="J4" end="60" vehsPerHour="91.44065708254115"/>
  <flow id="JF46940" begin="0" fromJunction="J3" toJunction="J7" end="60" vehsPerHour="103.57737656277962"/>
  <flow id="JF46941" begin="0" fromJunction="J3" toJunction="J6" end="60" vehsPerHour="84.54611156307804"/>
  <flow id="JF46942" begin="0" fromJunction="J3" toJunction="J5" end="60" vehsPerHour="98.26481806495359"/>
  <flow id="JF46943" begin="0" fromJunction="J3" toJunction="J4" end="60" vehsPerHour="65.81463326844396"/>
  <flow id="JF46944" begin="0" fromJunction="J7" toJunction="J6" end="60" vehsPerHour="12.496535567776391"/>
  <flow id="JF46945" begin="0" fromJunction="J7" toJunction="J5" end="60" vehsPerHour="14.222881675717055"/>
  <flow id="JF46946" begin="0" fromJunction="J7" toJunction="J4" end="60" vehsPerHour="47.0668468043633"/>
  <flow id="JF46947" begin="0" fromJunction="J6" toJunction="J7" end="60" vehsPerHour="64.79013057621732"/>
  <flow id="JF46948" begin="0" fromJunction="J6" toJunction="J5" end="60" vehsPerHour="61.02419830368739"/>
  <flow id="JF46949" begin="0" fromJunction="J6" toJunction="J4" end="60" vehsPerHour="9.669878499307517"/>
  <flow id="JF46950" begin="0" fromJunction="J5" toJunction="J7" end="60" vehsPerHour="26.059715845794848"/>
  <flow id="JF46951" begin="0" fromJunction="J5" toJunction="J6" end="60" vehsPerHour="48.761535587873816"/>
  <flow id="JF46952" begin="0" fromJunction="J5" toJunction="J4" end="60" vehsPerHour="28.99159937015768"/>
  <flow id="JF46953" begin="0" fromJunction="J4" toJunction="J7" end="60" vehsPerHour="17.516290421038697"/>
  <flow id="JF46954" begin="0" fromJunction="J4" toJunction="J6" end="60" vehsPerHour="0.9064919352284626"/>
  <flow id="JF46955" begin="0" fromJunction="J4" toJunction="J5" end="60" vehsPerHour="65.08131439761085"/>
  <flow id="JF46956" begin="0" fromJunction="J7" toJunction="J0" end="60" vehsPerHour="52.790470326779555"/>
  <flow id="JF46957" begin="0" fromJunction="J7" toJunction="J3" end="60" vehsPerHour="50.6830150688342"/>
  <flow id="JF46958" begin="0" fromJunction="J6" toJunction="J0" end="60" vehsPerHour="57.11465006626729"/>
  <flow id="JF46959" begin="0" fromJunction="J6" toJunction="J3" end="60" vehsPerHour="3.6679973055355553"/>
  <flow id="JF46960" begin="0" fromJunction="J5" toJunction="J0" end="60" vehsPerHour="1.2812279853106057"/>
  <flow id="JF46961" begin="0" fromJunction="J5" toJunction="J3" end="60" vehsPerHour="63.43287252150282"/>
  <flow id="JF46962" begin="0" fromJunction="J4" toJunction="J0" end="60" vehsPerHour="5.533028406757001"/>
  <flow id="JF46963" begin="0" fromJunction="J4" toJunction="J3" end="60" vehsPerHour="10.001938498779603"/>
  <flow id="JF46964" begin="60" fromJunction="J0" toJunction="J3" end="120" vehsPerHour="541.41089966671"/>
  <flow id="JF46965" begin="60" fromJunction="J3" toJunction="J0" end="120" vehsPerHour="325.43906480410214"/>
  <flow id="JF46966" begin="60" fromJunction="J0" toJunction="J7" end="120" vehsPerHour="55.31601262943857"/>
  <flow id="JF46967" begin="60" fromJunction="J0" toJunction="J6" end="120" vehsPerHour="92.64631740158755"/>
  <flow id="JF46968" begin="60" fromJunction="J0" toJunction="J5" end="120" vehsPerHour="108.07073429826052"/>
  <flow id="JF46969" begin="60" fromJunction="J0" toJunction="J4" end="120" vehsPerHour="52.69406336264391"/>
  <flow id="JF46970" begin="60" fromJunction="J3" toJunction="J7" end="120" vehsPerHour="55.28547403040733"/>
  <flow id="JF46971" begin="60" fromJunction="J3" toJunction="J6" end="120" vehsPerHour="73.51301579083557"/>
  <flow id="JF46972" begin="60" fromJunction="J3" toJunction="J5" end="120" vehsPerHour="91.64496229411824"/>
  <flow id="JF46973" begin="60" fromJunction="J3" toJunction="J4" end="120" vehsPerHour="121.64538756407856"/>
  <flow id="JF46974" begin="60" fromJunction="J7" toJunction="J6" end="120" vehsPerHour="43.30731802384522"/>
  <flow id="JF46975" begin="60" fromJunction="J7" toJunction="J5" end="120" vehsPerHour="29.600942950941562"/>
  <flow id="JF46976" begin="60" fromJunction="J7" toJunction="J4" end="120" vehsPerHour="60.417747967694396"/>
  <flow id="JF46977" begin="60" fromJunction="J6" toJunction="J7" end="120" vehsPerHour="31.71026173845748"/>
  <flow id="JF46978" begin="60" fromJunction="J6" toJunction="J5" end="120" vehsPerHour="35.1275079430136"/>
  <flow id="JF46979" begin="60" fromJunction="J6" toJunction="J4" end="120" vehsPerHour="58.078125809383955"/>
  <flow id="JF46980" begin="60" fromJunction="J5" toJunction="J7" end="120" vehsPerHour="57.23022283049742"/>
  <flow id="JF46981" begin="60" fromJunction="J5" toJunction="J6" end="120" vehsPerHour="24.851289182345695"/>
  <flow id="JF46982" begin="60" fromJunction="J5" toJunction="J4" end="120" vehsPerHour="22.049887468679085"/>
  <flow id="JF46983" begin="60" fromJunction="J4" toJunction="J7" end="120" vehsPerHour="23.364546934748475"/>
  <flow id="JF46984" begin="60" fromJunction="J4" toJunction="J6" end="120" vehsPerHour="9.046368503061643"/>
  <flow id="JF46985" begin="60" fromJunction="J4" toJunction="J5" end="120" vehsPerHour="12.926553121798316"/>
  <flow id="JF46986" begin="60" fromJunction="J7" toJunction="J0" end="120" vehsPerHour="57.06797907648132"/>
  <flow id="JF46987" begin="60" fromJunction="J7" toJunction="J3" end="120" vehsPerHour="3.3995676748350148"/>
  <flow id="JF46988" begin="60" fromJunction="J6" toJunction="J0" end="120" vehsPerHour="11.989251555714196"/>
  <flow id="JF46989" begin="60" fromJunction="J6" toJunction="J3" end="120" vehsPerHour="17.781683751710013"/>
  <flow id="JF46990" begin="60" fromJunction="J5" toJunction="J0" end="120" vehsPerHour="8.131164607854062"/>
  <flow id="JF46991" begin="60" fromJunction="J5" toJunction="J3" end="120" vehsPerHour="64.69320978672523"/>
  <flow id="JF46992" begin="60" fromJunction="J4" toJunction="J0" end="120" vehsPerHour="15.056393135185925"/>
  <flow id="JF46993" begin="60" fromJunction="J4" toJunction="J3" end="120" vehsPerHour="30.296336426766533"/>
  <flow id="JF46994" begin="120" fromJunction="J0" toJunction="J3" end="180" vehsPerHour="251.7498112358753"/>
  <flow id="JF46995" begin="120" fromJunction="J3" toJunction="J0" end="180" vehsPerHour="103.42877123896741"/>
  <flow id="JF46996" begin="120" fromJunction="J0" toJunction="J7" end="180" vehsPerHour="26.0895689272195"/>
  <flow id="JF46997" begin="120" fromJunction="J0" toJunction="J6" end="180" vehsPerHour="71.83700541029015"/>
  <flow id="JF46998" begin="120" fromJunction="J0" toJunction="J5" end="180" vehsPerHour="85.61470137798827"/>
  <flow id="JF46999" begin="120" fromJunction="J0" toJunction="J4" end="180" vehsPerHour="47.822783421014876"/>
  <flow id="JF47000" begin="120" fromJunction="J3" toJunction="J7" end="180" vehsPerHour="24.6862861076636"/>
  <flow id="JF47001" begin="120" fromJunction="J3" toJunction="J6" end="180" vehsPerHour="47.98905345739402"/>
  <flow id="JF47002" begin="120" fromJunction="J3" toJunction="J5" end="180" vehsPerHour="37.00402979121124"/>
  <flow id="JF47003" begin="120" fromJunction="J3" toJunction="J4" end="180" vehsPerHour="127.9100145467305"/>
  <flow id="JF47004" begin="120" fromJunction="J7" toJunction="J6" end="180" vehsPerHour="51.475790036431164"/>
  <flow id="JF47005" begin="120" fromJunction="J7" toJunction="J5" end="180" vehsPerHour="66.00720685219213"/>
  <flow id="JF47006" begin="120" fromJunction="J7" toJunction="J4" end="180" vehsPerHour="59.48002154275565"/>
  <flow id="JF47007" begin="120" fromJunction="J6" toJunction="J7" end="180" vehsPerHour="19.181182624467784"/>
  <flow id="JF47008" begin="120" fromJunction="J6" toJunction="J5" end="180" vehsPerHour="34.764591461152335"/>
  <flow id="JF47009" begin="120" fromJunction="J6" toJunction="J4" end="180" vehsPerHour="36.80388328355987"/>
  <flow id="JF47010" begin="120" fromJunction="J5" toJunction="J7" end="180" vehsPerHour="22.741489807186298"/>
  <flow id="JF47011" begin="120" fromJunction="J5" toJunction="J6" end="180" vehsPerHour="19.358200303394348"/>
  <flow id="JF47012" begin="120" fromJunction="J5" toJunction="J4" end="180" vehsPerHour="15.501740684259715"/>
  <flow id="JF47013" begin="120" fromJunction="J4" toJunction="J7" end="180" vehsPerHour="66.16840009728695"/>
  <flow id="JF47014" begin="120" fromJunction="J4" toJunction="J6" end="180" vehsPerHour="1.6012212257193101"/>
  <flow id="JF47015" begin="120" fromJunction="J4" toJunction="J5" end="180" vehsPerHour="10.930827343472703"/>
  <flow id="JF47016" begin="120" fromJunction="J7" toJunction="J0" end="180" vehsPerHour="63.318769248419564"/>
  <flow id="JF47017" begin="120" fromJunction="J7" toJunction="J3" end="180" vehsPerHour="0.06241179567514307"/>
  <flow id="JF47018" begin="120" fromJunction="J6" toJunction="J0" end="180" vehsPerHour="44.31818426635039"/>
  <flow id="JF47019" begin="120" fromJunction="J6" toJunction="J3" end="180" vehsPerHour="13.55030461321725"/>
  <flow id="JF47020" begin="120" fromJunction="J5" toJunction="J0" end="180" vehsPerHour="41.165347101608376"/>
  <flow id="JF47021" begin="120" fromJunction="J5" toJunction="J3" end="180" vehsPerHour="47.81899724273829"/>
  <flow id="JF47022" begin="120" fromJunction="J4" toJunction="J0" end="180" vehsPerHour="67.5050159936357"/>
  <flow id="JF47023" begin="120" fromJunction="J4" toJunction="J3" end="180" vehsPerHour="66.98319857558366"/>
  <flow id="JF47024" begin="180" fromJunction="J0" toJunction="J3" end="240" vehsPerHour="96.47544092385913"/>
  <flow id="JF47025" begin="180" fromJunction="J3" toJunction="J0" end="240" vehsPerHour="140.41508744416208"/>
  <flow id="JF47026" begin="180" fromJunction="J0" toJunction="J7" end="240" vehsPerHour="64.73829706023932"/>
  <flow id="JF47027" begin="180" fromJunction="J0" toJunction="J6" end="240" vehsPerHour="30.710883555195583"/>
  <flow id="JF47028" begin="180" fromJunction="J0" toJunction="J5" end="240" vehsPerHour="133.04031415886473"/>
  <flow id="JF47029" begin="180" fromJunction="J0" toJunction="J4" end="240" vehsPerHour="118.22554642090351"/>
  <flow id="JF47030" begin="180" fromJunction="J3" toJunction="J7" end="240" vehsPerHour="13.052162600986167"/>
  <flow id="JF47031" begin="180" fromJunction="J3" toJunction="J6" end="240" vehsPerHour="85.45816615067491"/>
  <flow id="JF47032" begin="180" fromJunction="J3" toJunction="J5" end="240" vehsPerHour="35.53433381542864"/>
  <flow id="JF47033" begin="180" fromJunction="J3" toJunction="J4" end="240" vehsPerHour="2.240025003334636"/>
  <flow id="JF47034" begin="180" fromJunction="J7" toJunction="J6" end="240" vehsPerHour="49.212338736472745"/>
  <flow id="JF47035" begin="180" fromJunction="J7" toJunction="J5" end="240" vehsPerHour="7.68130170644952"/>
  <flow id="JF47036" begin="180" fromJunction="J7" toJunction="J4" end="240" vehsPerHour="22.81904232004469"/>
  <flow id="JF47037" begin="180" fromJunction="J6" toJunction="J7" end="240" vehsPerHour="29.39908284872634"/>
  <flow id="JF47038" begin="180" fromJunction="J6" toJunction="J5" end="240" vehsPerHour="48.90283423455322"/>
  <flow id="JF47039" begin="180" fromJunction="J6" toJunction="J4" end="240" vehsPerHour="7.016712949303708"/>
  <flow id="JF47040" begin="180" fromJunction="J5" toJunction="J7" end="240" vehsPerHour="1.581997900134655"/>
  <flow id="JF47041" begin="180" fromJunction="J5" toJunction="J6" end="240" vehsPerHour="23.966052854758825"/>
  <flow id="JF47042" begin="180" fromJunction="J5" toJunction="J4" end="240" vehsPerHour="14.242805809888907"/>
  <flow id="JF47043" begin="180" fromJunction="J4" toJunction="J7" end="240" vehsPerHour="7.843220089441017"/>
  <flow id="JF47044" begin="180" fromJunction="J4" toJunction="J6" end="240" vehsPerHour="54.748296714986935"/>
  <flow id="JF47045" begin="180" fromJunction="J4" toJunction="J5" end="240" vehsPerHour="65.51490633021787"/>
  <flow id="JF47046" begin="180" fromJunction="J7" toJunction="J0" end="240" vehsPerHour="38.21984983950699"/>
  <flow id="JF47047" begin="180" fromJunction="J7" toJunction="J3" end="240" vehsPerHour="58.247247286504745"/>
  <flow id="JF47048" begin="180" fromJunction="J6" toJunction="J0" end="240" vehsPerHour="56.11324144671198"/>
  <flow id="JF47049" begin="180" fromJunction="J6" toJunction="J3" end="240" vehsPerHour="58.39456518425629"/>
  <flow id="JF47050" begin="180" fromJunction="J5" toJunction="J0" end="240" vehsPerHour="28.932637997080313"/>
  <flow id="JF47051" begin="180" fromJunction="J5" toJunction="J3" end="240" vehsPerHour="34.585903213672175"/>
  <flow id="JF47052" begin="180" fromJunction="J4" toJunction="J0" end="240" vehsPerHour="9.224369872502786"/>
  <flow id="JF47053" begin="180" fromJunction="J4" toJunction="J3" end="240" vehsPerHour="33.5494725107553"/>
  <flow id="JF47054" begin="240" fromJunction="J0" toJunction="J3" end="300" vehsPerHour="298.72299225973256"/>
  <flow id="JF47055" begin="240" fromJunction="J3" toJunction="J0" end="300" vehsPerHour="160.44597323272916"/>
  <flow id="JF47056" begin="240" fromJunction="J0" toJunction="J7" end="300" vehsPerHour="43.4360054473659"/>
  <flow id="JF47057" begin="240" fromJunction="J0" toJunction="J6" end="300" vehsPerHour="133.119464579706"/>
  <flow id="JF47058" begin="240" fromJunction="J0" toJunction="J5" end="300" vehsPerHour="136.97078309961992"/>
  <flow id="JF47059" begin="240" fromJunction="J0" toJunction="J4" end="300" vehsPerHour="107.57569862823354"/>
  <flow id="JF47060" begin="240" fromJunction="J3" toJunction="J7" end="300" vehsPerHour="20.223061851680654"/>
  <flow id="JF47061" begin="240" fromJunction="J3" toJunction="J6" end="300" vehsPerHour="49.483899797906496"/>
  <flow id="JF47062" begin="240" fromJunction="J3" toJunction="J5" end="300" vehsPerHour="126.42077166098633"/>
  <flow id="JF47063" begin="240" fromJunction="J3" toJunction="J4" end="300" vehsPerHour="36.56151365458124"/>
  <flow id="JF47064" begin="240" fromJunction="J7" toJunction="J6" end="300" vehsPerHour="24.104805073617715"/>
  <flow id="JF47065" begin="240" fromJunction="J7" toJunction="J5" end="300" vehsPerHour="5.2398747116537"/>
  <flow id="JF47066" begin="240" fromJunction="J7" toJunction="J4" end="300" vehsPerHour="23.937906543674167"/>
  <flow id="JF47067" begin="240" fromJunction="J6" toJunction="J7" end="300" vehsPerHour="42.710874609918584"/>
  <flow id="JF47068" begin="240" fromJunction="J6" toJunction="J5" end="300" vehsPerHour="50.71649176687102"/>
  <flow id="JF47069" begin="240" fromJunction="J6" toJunction="J4" end="300" vehsPerHour="47.46534974416766"/>
  <flow id="JF47070" begin="240" fromJunction="J5" toJunction="J7" end="300" vehsPerHour="48.53408159100302"/>
  <flow id="JF47071" begin="240" fromJunction="J5" toJunction="J6" end="300" vehsPerHour="42.556462265282725"/>
  <flow id="JF47072" begin="240" fromJunction="J5" toJunction="J4" end="300" vehsPerHour="5.577924730045056"/>
  <flow id="JF47073" begin="240" fromJunction="J4" toJunction="J7" end="300" vehsPerHour="51.152857234333126"/>
  <flow id="JF47074" begin="240" fromJunction="J4" toJunction="J6" end="300" vehsPerHour="8.415060005128302"/>
  <flow id="JF47075" begin="240" fromJunction="J4" toJunction="J5" end="300" vehsPerHour="64.14216310646219"/>
  <flow id="JF47076" begin="240" fromJunction="J7" toJunction="J0" end="300" vehsPerHour="18.047631614322412"/>
  <flow id="JF47077" begin="240" fromJunction="J7" toJunction="J3" end="300" vehsPerHour="18.34238351910125"/>
  <flow id="JF47078" begin="240" fromJunction="J6" toJunction="J0" end="300" vehsPerHour="45.47209113113712"/>
  <flow id="JF47079" begin="240" fromJunction="J6" toJunction="J3" end="300" vehsPerHour="11.302177519013318"/>
  <flow id="JF47080" begin="240" fromJunction="J5" toJunction="J0" end="300" vehsPerHour="65.66359738593522"/>
  <flow id="JF47081" begin="240" fromJunction="J5" toJunction="J3" end="300" vehsPerHour="61.871725654734135"/>
  <flow id="JF47082" begin="240" fromJunction="J4" toJunction="J0" end="300" vehsPerHour="14.889676431223213"/>
  <flow id="JF47083" begin="240" fromJunction="J4" toJunction="J3" end="300" vehsPerHour="59.96090369079478"/>
  <flow id="JF47084" begin="300" fromJunction="J0" toJunction="J3" end="360" vehsPerHour="253.67022034006058"/>
  <flow id="JF47085" begin="300" fromJunction="J3" toJunction="J0" end="360" vehsPerHour="494.2639813165573"/>
  <flow id="JF47086" begin="300" fromJunction="J0" toJunction="J7" end="360" vehsPerHour="19.91730024315176"/>
  <flow id="JF47087" begin="300" fromJunction="J0" toJunction="J6" end="360" vehsPerHour="34.159413330058484"/>
  <flow id="JF47088" begin="300" fromJunction="J0" toJunction="J5" end="360" vehsPerHour="124.63042277050884"/>
  <flow id="JF47089" begin="300" fromJunction="J0" toJunction="J4" end="360" vehsPerHour="117.198092516464"/>
  <flow id="JF47090" begin="300" fromJunction="J3" toJunction="J7" end="360" vehsPerHour="90.03792541588192"/>
  <flow id="JF47091" begin="300" fromJunction="J3" toJunction="J6" end="360" vehsPerHour="115.55065376233438"/>
  <flow id="JF47092" begin="300" fromJunction="J3" toJunction="J5" end="360" vehsPerHour="126.77771997815223"/>
  <flow id="JF47093" begin="300" fromJunction="J3" toJunction="J4" end="360" vehsPerHour="38.24763907499561"/>
  <flow id="JF47094" begin="300" fromJunction="J7" toJunction="J6" end="360" vehsPerHour="17.600512317799954"/>
  <flow id="JF47095" begin="300" fromJunction="J7" toJunction="J5" end="360" vehsPerHour="45.57772419474744"/>
  <flow id="JF47096" begin="300" fromJunction="J7" toJunction="J4" end="360" vehsPerHour="19.866044336621353"/>
  <flow id="JF47097" begin="300" fromJunction="J6" toJunction="J7" end="360" vehsPerHour="24.951527483413543"/>
  <flow id="JF47098" begin="300" fromJunction="J6" toJunction="J5" end="360" vehsPerHour="38.41217875384144"/>
  <flow id="JF47099" begin="300" fromJunction="J6" toJunction="J4" end="360" vehsPerHour="61.01085552671805"/>
  <flow id="JF47100" begin="300" fromJunction="J5" toJunction="J7" end="360" vehsPerHour="52.53610787501738"/>
  <flow id="JF47101" begin="300" fromJunction="J5" toJunction="J6" end="360" vehsPerHour="55.308290435267914"/>
  <flow id="JF47102" begin="300" fromJunction="J5" toJunction="J4" end="360" vehsPerHour="28.454001280270354"/>
  <flow id="JF47103" begin="300" fromJunction="J4" toJunction="J7" end="360" vehsPerHour="57.613623108143855"/>
  <flow id="JF47104" begin="300" fromJunction="J4" toJunction="J6" end="360" vehsPerHour="37.75430433782516"/>
  <flow id="JF47105" begin="300" fromJunction="J4" toJunction="J5" end="360" vehsPerHour="27.521013569667563"/>
  <flow id="JF47106" begin="300" fromJunction="J7" toJunction="J0" end="360" vehsPerHour="10.242808161207241"/>
  <flow id="JF47107" begin="300" fromJunction="J7" toJunction="J3" end="360" vehsPerHour="25.177437131646567"/>
  <flow id="JF47108" begin="300" fromJunction="J6" toJunction="J0" end="360" vehsPerHour="30.90177416217216"/>
  <flow id="JF47109" begin="300" fromJunction="J6" toJunction="J3" end="360" vehsPerHour="23.624645462791367"/>
  <flow id="JF47110" begin="300" fromJunction="J5" toJunction="J0" end="360" vehsPerHour="62.84664187385123"/>
  <flow id="JF47111" begin="300" fromJunction="J5" toJunction="J3" end="360" vehsPerHour="6.177119004132818"/>
  <flow id="JF47112" begin="300" fromJunction="J4" toJunction="J0" end="360" vehsPerHour="12.718038060803647"/>
  <flow id="JF47113" begin="300" fromJunction="J4" toJunction="J3" end="360" vehsPerHour="60.85034982314542"/>
  <flow id="JF47114" begin="360" fromJunction="J0" toJunction="J3" end="420" vehsPerHour="136.879843245679"/>
  <flow id="JF47115" begin="360" fromJunction="J3" toJunction="J0" end="420" vehsPerHour="476.2720673850775"/>
  <flow id="JF47116" begin="360" fromJunction="J0" toJunction="J7" end="420" vehsPerHour="6.577839858877195"/>
  <flow id="JF47117" begin="360" fromJunction="J0" toJunction="J6" end="420" vehsPerHour="131.6354101652901"/>
  <flow id="JF47118" begin="360" fromJunction="J0" toJunction="J5" end="420" vehsPerHour="84.39434242476864"/>
  <flow id="JF47119" begin="360" fromJunction="J0" toJunction="J4" end="420" vehsPerHour="93.26471892797336"/>
  <flow id="JF47120" begin="360" fromJunction="J3" toJunction="J7" end="420" vehsPerHour="89.55239088263417"/>
  <flow id="JF47121" begin="360" fromJunction="J3" toJunction="J6" end="420" vehsPerHour="94.68216593074163"/>
  <flow id="JF47122" begin="360" fromJunction="J3" toJunction="J5" end="420" vehsPerHour="1.9225152998579806"/>
  <flow id="JF47123" begin="360" fromJunction="J3" toJunction="J4" end="420" vehsPerHour="59.52523376723648"/>
  <flow id="JF47124" begin="360" fromJunction="J7" toJunction="J6" end="420" vehsPerHour="33.30074751366139"/>
  <flow id="JF47125" begin="360" fromJunction="J7" toJunction="J5" end="420" vehsPerHour="62.33213128778479"/>
  <flow id="JF47126" begin="360" fromJunction="J7" toJunction="J4" end="420" vehsPerHour="52.03726963289388"/>
  <flow id="JF47127" begin="360" fromJunction="J6" toJunction="J7" end="420" vehsPerHour="41.085759727575706"/>
  <flow id="JF47128" begin="360" fromJunction="J6" toJunction="J5" end="420" vehsPerHour="19.44678498053218"/>
  <flow id="JF47129" begin="360" fromJunction="J6" toJunction="J4" end="420" vehsPerHour="31.211691386231088"/>
  <flow id="JF47130" begin="360" fromJunction="J5" toJunction="J7" end="420" vehsPerHour="67.36123763497137"/>
  <flow id="JF47131" begin="360" fromJunction="J5" toJunction="J6" end="420" vehsPerHour="45.522968329884286"/>
  <flow id="JF47132" begin="360" fromJunction="J5" toJunction="J4" end="420" vehsPerHour="20.24427149181771"/>
  <flow id="JF47133" begin="360" fromJunction="J4" toJunction="J7" end="420" vehsPerHour="46.153423715077274"/>
  <flow id="JF47134" begin="360" fromJunction="J4" toJunction="J6" end="420" vehsPerHour="8.801572468544745"/>
  <flow id="JF47135" begin="360" fromJunction="J4" toJunction="J5" end="420" vehsPerHour="14.973142251857121"/>
  <flow id="JF47136" begin="360" fromJunction="J7" toJunction="J0" end="420" vehsPerHour="57.50166493589703"/>
  <flow id="JF47137" begin="360" fromJunction="J7" toJunction="J3" end="420" vehsPerHour="7.471069679423223"/>
  <flow id="JF47138" begin="360" fromJunction="J6" toJunction="J0" end="420" vehsPerHour="13.453587299598233"/>
  <flow id="JF47139" begin="360" fromJunction="J6" toJunction="J3" end="420" vehsPerHour="30.796029681211486"/>
  <flow id="JF47140" begin="360" fromJunction="J5" toJunction="J0" end="420" vehsPerHour="56.03545395692621"/>
  <flow id="JF47141" begin="360" fromJunction="J5" toJunction="J3" end="420" vehsPerHour="64.77897119701375"/>
  <flow id="JF47142" begin="360" fromJunction="J4" toJunction="J0" end="420" vehsPerHour="33.731771936319674"/>
  <flow id="JF47143" begin="360" fromJunction="J4" toJunction="J3" end="420" vehsPerHour="5.315203879366629"/>
  <flow id="JF47144" begin="420" fromJunction="J0" toJunction="J3" end="480" vehsPerHour="34.66035969389832"/>
  <flow id="JF47145" begin="420" fromJunction="J3" toJunction="J0" end="480" vehsPerHour="545.1638766110016"/>
  <flow id="JF47146" begin="420" fromJunction="J0" toJunction="J7" end="480" vehsPerHour="86.14102476717703"/>
  <flow id="JF47147" begin="420" fromJunction="J0" toJunction="J6" end="480" vehsPerHour="44.28538096401296"/>
  <flow id="JF47148" begin="420" fromJunction="J0" toJunction="J5" end="480" vehsPerHour="21.956479183758685"/>
  <flow id="JF47149" begin="420" fromJunction="J0" toJunction="J4" end="480" vehsPerHour="79.19497714365458"/>
  <flow id="JF47150" begin="420" fromJunction="J3" toJunction="J7" end="480" vehsPerHour="48.99399707656178"/>
  <flow id="JF47151" begin="420" fromJunction="J3" toJunction="J6" end="480" vehsPerHour="39.6874846213205"/>
  <flow id="JF47152" begin="420" fromJunction="J3" toJunction="J5" end="480" vehsPerHour="23.983360666913182"/>
  <flow id="JF47153" begin="420" fromJunction="J3" toJunction="J4" end="480" vehsPerHour="110.658143608594"/>
  <flow id="JF47154" begin="420" fromJunction="J7" toJunction="J6" end="480" vehsPerHour="23.04958368009163"/>
  <flow id="JF47155" begin="420" fromJunction="J7" toJunction="J5" end="480" vehsPerHour="6.472232050548489"/>
  <flow id="JF47156" begin="420" fromJunction="J7" toJunction="J4" end="480" vehsPerHour="22.579977360019896"/>
  <flow id="JF47157" begin="420" fromJunction="J6" toJunction="J7" end="480" vehsPerHour="56.12672704932795"/>
  <flow id="JF47158" begin="420" fromJunction="J6" toJunction="J5" end="480" vehsPerHour="3.538340306939884"/>
  <flow id="JF47159" begin="420" fromJunction="J6" toJunction="J4" end="480" vehsPerHour="59.762206867476046"/>
  <flow id="JF47160" begin="420" fromJunction="J5" toJunction="J7" end="480" vehsPerHour="13.041496777188389"/>
  <flow id="JF47161" begin="420" fromJunction="J5" toJunction="J6" end="480" vehsPerHour="24.308878191900014"/>
  <flow id="JF47162" begin="420" fromJunction="J5" toJunction="J4" end="480" vehsPerHour="60.32224539063024"/>
  <flow id="JF47163" begin="420" fromJunction="J4" toJunction="J7" end="480" vehsPerHour="21.016961160504486"/>
  <flow id="JF47164" begin="420" fromJunction="J4" toJunction="J6" end="480" vehsPerHour="29.361025374036647"/>
  <flow id="JF47165" begin="420" fromJunction="J4" toJunction="J5" end="480" vehsPerHour="38.21271957050675"/>
  <flow id="JF47166" begin="420" fromJunction="J7" toJunction="J0" end="480" vehsPerHour="20.273620298069144"/>
  <flow id="JF47167" begin="420" fromJunction="J7" toJunction="J3" end="480" vehsPerHour="20.63497596480703"/>
  <flow id="JF47168" begin="420" fromJunction="J6" toJunction="J0" end="480" vehsPerHour="20.238462431387628"/>
  <flow id="JF47169" begin="420" fromJunction="J6" toJunction="J3" end="480" vehsPerHour="27.925948208341442"/>
  <flow id="JF47170" begin="420" fromJunction="J5" toJunction="J0" end="480" vehsPerHour="20.220724441081657"/>
  <flow id="JF47171" begin="420" fromJunction="J5" toJunction="J3" end="480" vehsPerHour="65.32348013357594"/>
  <flow id="JF47172" begin="420" fromJunction="J4" toJunction="J0" end="480" vehsPerHour="39.55436096541259"/>
  <flow id="JF47173" begin="420" fromJunction="J4" toJunction="J3" end="480" vehsPerHour="26.76826946369921"/>
  <flow id="JF47174" begin="480" fromJunction="J0" toJunction="J3" end="540" vehsPerHour="401.56508118208217"/>
  <flow id="JF47175" begin="480" fromJunction="J3" toJunction="J0" end="540" vehsPerHour="217.5367188294108"/>
  <flow id="JF47176" begin="480" fromJunction="J0" toJunction="J7" end="540" vehsPerHour="11.110511586421005"/>
  <flow id="JF47177" begin="480" fromJunction="J0" toJunction="J6" end="540" vehsPerHour="63.2355757615532"/>
  <flow id="JF47178" begin="480" fromJunction="J0" toJunction="J5" end="540" vehsPerHour="65.89285785712477"/>
  <flow id="JF47179" begin="480" fromJunction="J0" toJunction="J4" end="540" vehsPerHour="86.5774821760947"/>
  <flow id="JF47180" begin="480" fromJunction="J3" toJunction="J7" end="540" vehsPerHour="2.528055252945383"/>
  <flow id="JF47181" begin="480" fromJunction="J3" toJunction="J6" end="540" vehsPerHour="64.70106143139547"/>
  <flow id="JF47182" begin="480" fromJunction="J3" toJunction="J5" end="540" vehsPerHour="83.11087129655635"/>
  <flow id="JF47183" begin="480" fromJunction="J3" toJunction="J4" end="540" vehsPerHour="136.48364094977907"/>
  <flow id="JF47184" begin="480" fromJunction="J7" toJunction="J6" end="540" vehsPerHour="52.3464978575088"/>
  <flow id="JF47185" begin="480" fromJunction="J7" toJunction="J5" end="540" vehsPerHour="35.919172074984715"/>
  <flow id="JF47186" begin="480" fromJunction="J7" toJunction="J4" end="540" vehsPerHour="6.2719879080238"/>
  <flow id="JF47187" begin="480" fromJunction="J6" toJunction="J7" end="540" vehsPerHour="67.9510743101435"/>
  <flow id="JF47188" begin="480" fromJunction="J6" toJunction="J5" end="540" vehsPerHour="61.33799782741338"/>
  <flow id="JF47189" begin="480" fromJunction="J6" toJunction="J4" end="540" vehsPerHour="42.293890153892775"/>
  <flow id="JF47190" begin="480" fromJunction="J5" toJunction="J7" end="540" vehsPerHour="56.7135315690437"/>
  <flow id="JF47191" begin="480" fromJunction="J5" toJunction="J6" end="540" vehsPerHour="34.74950449199901"/>
  <flow id="JF47192" begin="480" fromJunction="J5" toJunction="J4" end="540" vehsPerHour="44.17601957570163"/>
  <flow id="JF47193" begin="480" fromJunction="J4" toJunction="J7" end="540" vehsPerHour="63.28427843097638"/>
  <flow id="JF47194" begin="480" fromJunction="J4" toJunction="J6" end="540" vehsPerHour="3.397636370348719"/>
  <flow id="JF47195" begin="480" fromJunction="J4" toJunction="J5" end="540" vehsPerHour="35.50302880505994"/>
  <flow id="JF47196" begin="480" fromJunction="J7" toJunction="J0" end="540" vehsPerHour="53.61012062580531"/>
  <flow id="JF47197" begin="480" fromJunction="J7" toJunction="J3" end="540" vehsPerHour="37.45584660869258"/>
  <flow id="JF47198" begin="480" fromJunction="J6" toJunction="J0" end="540" vehsPerHour="10.758679746808664"/>
  <flow id="JF47199" begin="480" fromJunction="J6" toJunction="J3" end="540" vehsPerHour="59.63014781769712"/>
  <flow id="JF47200" begin="480" fromJunction="J5" toJunction="J0" end="540" vehsPerHour="64.15877247415655"/>
  <flow id="JF47201" begin="480" fromJunction="J5" toJunction="J3" end="540" vehsPerHour="18.515550464896695"/>
  <flow id="JF47202" begin="480" fromJunction="J4" toJunction="J0" end="540" vehsPerHour="62.81304057345306"/>