<?xml version="1.0" encoding="UTF-8"?>
<routes xmlns:xsi="http://www.w3.org/2001/XMLSchema-instance" xsi:noNamespaceSchemaLocation="http://sumo.dlr.de/xsd/routes_file.xsd">
  <flow id="JF62974" begin="0" fromJunction="J0" toJunction="J3" end="60" vehsPerHour="118.06149777464158"/>
  <flow id="JF62975" begin="0" fromJunction="J3" toJunction="J0" end="60" vehsPerHour="55.7922936272805"/>
  <flow id="JF62976" begin="0" fromJunction="J0" toJunction="J7" end="60" vehsPerHour="23.582830263084883"/>
  <flow id="JF62977" begin="0" fromJunction="J0" toJunction="J6" end="60" vehsPerHour="129.08792126530383"/>
  <flow id="JF62978" begin="0" fromJunction="J0" toJunction="J5" end="60" vehsPerHour="84.54936630751534"/>
  <flow id="JF62979" begin="0" fromJunction="J0" toJunction="J4" end="60" vehsPerHour="78.16758418896242"/>
  <flow id="JF62980" begin="0" fromJunction="J3" toJunction="J7" end="60" vehsPerHour="89.15958167685662"/>
  <flow id="JF62981" begin="0" fromJunction="J3" toJunction="J6" end="60" vehsPerHour="65.44473299048902"/>
  <flow id="JF62982" begin="0" fromJunction="J3" toJunction="J5" end="60" vehsPerHour="124.64820511104186"/>
  <flow id="JF62983" begin="0" fromJunction="J3" toJunction="J4" end="60" vehsPerHour="53.248223120500946"/>
  <flow id="JF62984" begin="60" fromJunction="J0" toJunction="J3" end="120" vehsPerHour="359.3033428850726"/>
  <flow id="JF62985" begin="60" fromJunction="J3" toJunction="J0" end="120" vehsPerHour="486.19806768581253"/>
  <flow id="JF62986" begin="60" fromJunction="J0" toJunction="J7" end="120" vehsPerHour="106.67076415101786"/>
  <flow id="JF62987" begin="60" fromJunction="J0" toJunction="J6" end="120" vehsPerHour="97.83399656444547"/>
  <flow id="JF62988" begin="60" fromJunction="J0" toJunction="J5" end="120" vehsPerHour="119.16874307034327"/>
  <flow id="JF62989" begin="60" fromJunction="J0" toJunction="J4" end="120" vehsPerHour="6.7209649059885415"/>
  <flow id="JF62990" begin="60" fromJunction="J3" toJunction="J7" end="120" vehsPerHour="26.995374024485685"/>
  <flow id="JF62991" begin="60" fromJunction="J3" toJunction="J6" end="120" vehsPerHour="36.12475674328648"/>
  <flow id="JF62992" begin="60" fromJunction="J3" toJunction="J5" end="120" vehsPerHour="23.538325483353194"/>
  <flow id="JF62993" begin="60" fromJunction="J3" toJunction="J4" end="120" vehsPerHour="45.15178165654575"/>
  <flow id="JF62994" begin="60" fromJunction="J7" toJunction="J6" end="120" vehsPerHour="16.23622742276785"/>
  <flow id="JF62995" begin="60" fromJunction="J7" toJunction="J5" end="120" vehsPerHour="57.43230713242773"/>
  <flow id="JF62996" begin="60" fromJunction="J7" toJunction="J4" end="120" vehsPerHour="23.760306451379524"/>
  <flow id="JF62997" begin="60" fromJunction="J6" toJunction="J7" end="120" vehsPerHour="19.26702700775092"/>
  <flow id="JF62998" begin="60" fromJunction="J6" toJunction="J5" end="120" vehsPerHour="10.894309632882948"/>
  <flow id="JF62999" begin="60" fromJunction="J6" toJunction="J4" end="120" vehsPerHour="6.086654480401479"/>
  <flow id="JF63000" begin="60" fromJunction="J5" toJunction="J7" end="120" vehsPerHour="30.5910464502755"/>
  <flow id="JF63001" begin="60" fromJunction="J5" toJunction="J6" end="120" vehsPerHour="1.7744202396896185"/>
  <flow id="JF63002" begin="60" fromJunction="J5" toJunction="J4" end="120" vehsPerHour="38.70823394386219"/>
  <flow id="JF63003" begin="60" fromJunction="J4" toJunction="J7" end="120" vehsPerHour="48.21103102063761"/>
  <flow id="JF63004" begin="60" fromJunction="J4" toJunction="J6" end="120" vehsPerHour="62.19510997493615"/>
  <flow id="JF63005" begin="60" fromJunction="J4" toJunction="J5" end="120" vehsPerHour="42.36342826264948"/>
  <flow id="JF63006" begin="60" fromJunction="J7" toJunction="J0" end="120" vehsPerHour="61.239357162999944"/>
  <flow id="JF63007" begin="60" fromJunction="J7" toJunction="J3" end="120" vehsPerHour="65.2805093741891"/>
  <flow id="JF63008" begin="60" fromJunction="J6" toJunction="J0" end="120" vehsPerHour="15.949250508314268"/>
  <flow id="JF63009" begin="60" fromJunction="J6" toJunction="J3" end="120" vehsPerHour="44.68336737806242"/>
  <flow id="JF63010" begin="60" fromJunction="J5" toJunction="J0" end="120" vehsPerHour="66.10305003498375"/>
  <flow id="JF63011" begin="60" fromJunction="J5" toJunction="J3" end="120" vehsPerHour="61.22722229487294"/>
  <flow id="JF63012" begin="60" fromJunction="J4" toJunction="J0" end="120" vehsPerHour="57.758182260826196"/>
  <flow id="JF63013" begin="60" fromJunction="J4" toJunction="J3" end="120" vehsPerHour="9.710726887890015"/>
  <flow id="JF63014" begin="120" fromJunction="J0" toJunction="J3" end="180" vehsPerHour="397.07318212053684"/>
  <flow id="JF63015" begin="120" fromJunction="J3" toJunction="J0" end="180" vehsPerHour="230.56515503284965"/>
  <flow id="JF63016" begin="120" fromJunction="J0" toJunction="J7" end="180" vehsPerHour="125.50783976944612"/>
  <flow id="JF63017" begin="120" fromJunction="J0" toJunction="J6" end="180" vehsPerHour="28.71234246563737"/>
  <flow id="JF63018" begin="120" fromJunction="J0" toJunction="J5" end="180" vehsPerHour="107.89582216054458"/>
  <flow id="JF63019" begin="120" fromJunction="J0" toJunction="J4" end="180" vehsPerHour="14.549269171578246"/>
  <flow id="JF63020" begin="120" fromJunction="J3" toJunction="J7" end="180" vehsPerHour="3.650447202736947"/>
  <flow id="JF63021" begin="120" fromJunction="J3" toJunction="J6" end="180" vehsPerHour="60.12893601983527"/>
  <flow id="JF63022" begin="120" fromJunction="J3" toJunction="J5" end="180" vehsPerHour="95.67338373893863"/>
  <flow id="JF63023" begin="120" fromJunction="J3" toJunction="J4" end="180" vehsPerHour="113.66791958636286"/>
  <flow id="JF63024" begin="120" fromJunction="J7" toJunction="J6" end="180" vehsPerHour="55.06294762305262"/>
  <flow id="JF63025" begin="120" fromJunction="J7" toJunction="J5" end="180" vehsPerHour="50.66096712850697"/>
  <flow id="JF63026" begin="120" fromJunction="J7" toJunction="J4" end="180" vehsPerHour="42.96384067213078"/>
  <flow id="JF63027" begin="120" fromJunction="J6" toJunction="J7" end="180" vehsPerHour="58.24779117495783"/>
  <flow id="JF63028" begin="120" fromJunction="J6" toJunction="J5" end="180" vehsPerHour="17.958503824276185"/>
  <flow id="JF63029" begin="120" fromJunction="J6" toJunction="J4" end="180" vehsPerHour="51.3541956865222"/>
  <flow id="JF63030" begin="120" fromJunction="J5" toJunction="J7" end="180" vehsPerHour="1.004484438469301"/>
  <flow id="JF63031" begin="120" fromJunction="J5" toJunction="J6" end="180" vehsPerHour="4.682957977169806"/>
  <flow id="JF63032" begin="120" fromJunction="J5" toJunction="J4" end="180" vehsPerHour="53.71224802690234"/>
  <flow id="JF63033" begin="120" fromJunction="J4" toJunction="J7" end="180" vehsPerHour="2.185893865286061"/>
  <flow id="JF63034" begin="120" fromJunction="J4" toJunction="J6" end="180" vehsPerHour="23.900255019598536"/>
  <flow id="JF63035" begin="120" fromJunction="J4" toJunction="J5" end="180" vehsPerHour="11.98821815778256"/>
  <flow id="JF63036" begin="120" fromJunction="J7" toJunction="J0" end="180" vehsPerHour="23.889732722463744"/>
  <flow id="JF63037" begin="120" fromJunction="J7" toJunction="J3" end="180" vehsPerHour="12.9057487675384"/>
  <flow id="JF63038" begin="120" fromJunction="J6" toJunction="J0" end="180" vehsPerHour="22.072696926043008"/>
  <flow id="JF63039" begin="120" fromJunction="J6" toJunction="J3" end="180" vehsPerHour="26.30743070693807"/>
  <flow id="JF63040" begin="120" fromJunction="J5" toJunction="J0" end="180" vehsPerHour="13.811953655749525"/>
  <flow id="JF63041" begin="120" fromJunction="J5" toJunction="J3" end="180" vehsPerHour="34.27524025418357"/>
  <flow id="JF63042" begin="120" fromJunction="J4" toJunction="J0" end="180" vehsPerHour="10.718569507380689"/>
  <flow id="JF63043" begin="120" fromJunction="J4" toJunction="J3" end="180" vehsPerHour="48.615613988356436"/>
  <flow id="JF63044" begin="180" fromJunction="J0" toJunction="J3" end="240" vehsPerHour="542.2139637360506"/>
  <flow id="JF63045" begin="180" fromJunction="J3" toJunction="J0" end="240" vehsPerHour="539.5264602673294"/>
  <flow id="JF63046" begin="180" fromJunction="J0" toJunction="J7" end="240" vehsPerHour="8.774171713582684"/>
  <flow id="JF63047" begin="180" fromJunction="J0" toJunction="J6" end="240" vehsPerHour="46.62779267885714"/>
  <flow id="JF63048" begin="180" fromJunction="J0" toJunction="J5" end="240" vehsPerHour="97.787080985697"/>
  <flow id="JF63049" begin="180" fromJunction="J0" toJunction="J4" end="240" vehsPerHour="128.57142402277083"/>
  <flow id="JF63050" begin="180" fromJunction="J3" toJunction="J7" end="240" vehsPerHour="122.07142392293174"/>
  <flow id="JF63051" begin="180" fromJunction="J3" toJunction="J6" end="240" vehsPerHour="21.105793720525714"/>
  <flow id="JF63052" begin="180" fromJunction="J3" toJunction="J5" end="240" vehsPerHour="48.3342388358977"/>
  <flow id="JF63053" begin="180" fromJunction="J3" toJunction="J4" end="240" vehsPerHour="132.98358157284454"/>
  <flow id="JF63054" begin="240" fromJunction="J0" toJunction="J3" end="300" vehsPerHour="183.7529205152286"/>
  <flow id="JF63055" begin="240" fromJunction="J3" toJunction="J0" end="300" vehsPerHour="126.28655227753164"/>
  <flow id="JF63056" begin="240" fromJunction="J0" toJunction="J7" end="300" vehsPerHour="31.36015063358013"/>
  <flow id="JF63057" begin="240" fromJunction="J0" toJunction="J6" end="300" vehsPerHour="59.721456420148904"/>
  <flow id="JF63058" begin="240" fromJunction="J0" toJunction="J5" end="300" vehsPerHour="33.4680109064771"/>
  <flow id="JF63059" begin="240" fromJunction="J0" toJunction="J4" end="300" vehsPerHour="26.60832574419957"/>
  <flow id="JF63060" begin="240" fromJunction="J3" toJunction="J7" end="300" vehsPerHour="13.406589718509101"/>
  <flow id="JF63061" begin="240" fromJunction="J3" toJunction="J6" end="300" vehsPerHour="124.69071209749451"/>
  <flow id="JF63062" begin="240" fromJunction="J3" toJunction="J5" end="300" vehsPerHour="124.52820060643624"/>
  <flow id="JF63063" begin="240" fromJunction="J3" toJunction="J4" end="300" vehsPerHour="59.45334360477136"/>
  <flow id="JF63064" begin="240" fromJunction="J7" toJunction="J6" end="300" vehsPerHour="14.118546675061399"/>
  <flow id="JF63065" begin="240" fromJunction="J7" toJunction="J5" end="300" vehsPerHour="43.88732123609511"/>
  <flow id="JF63066" begin="240" fromJunction="J7" toJunction="J4" end="300" vehsPerHour="59.26633480052567"/>
  <flow id="JF63067" begin="240" fromJunction="J6" toJunction="J7" end="300" vehsPerHour="15.360459946306756"/>
  <flow id="JF63068" begin="240" fromJunction="J6" toJunction="J5" end="300" vehsPerHour="46.54712403589124"/>
  <flow id="JF63069" begin="240" fromJunction="J6" toJunction="J4" end="300" vehsPerHour="19.191906153447498"/>
  <flow id="JF63070" begin="240" fromJunction="J5" toJunction="J7" end="300" vehsPerHour="66.47085769832158"/>
  <flow id="JF63071" begin="240" fromJunction="J5" toJunction="J6" end="300" vehsPerHour="39.3751252864165"/>
  <flow id="JF63072" begin="240" fromJunction="J5" toJunction="J4" end="300" vehsPerHour="39.201347363275325"/>
  <flow id="JF63073" begin="240" fromJunction="J4" toJunction="J7" end="300" vehsPerHour="60.53593582518113"/>
  <flow id="JF63074" begin="240" fromJunction="J4" toJunction="J6" end="300" vehsPerHour="4.5212300505905185"/>
  <flow id="JF63075" begin="240" fromJunction="J4" toJunction="J5" end="300" vehsPerHour="12.116691416270584"/>
  <flow id="JF63076" begin="240" fromJunction="J7" toJunction="J0" end="300" vehsPerHour="30.682095482316228"/>
  <flow id="JF63077" begin="240" fromJunction="J7" toJunction="J3" end="300" vehsPerHour="3.41187666537038"/>
  <flow id="JF63078" begin="240" fromJunction="J6" toJunction="J0" end="300" vehsPerHour="5.902549568835055"/>
  <flow id="JF63079" begin="240" fromJunction="J6" toJunction="J3" end="300" vehsPerHour="15.528473255943306"/>
  <flow id="JF63080" begin="240" fromJunction="J5" toJunction="J0" end="300" vehsPerHour="17.692427639564677"/>
  <flow id="JF63081" begin="240" fromJunction="J5" toJunction="J3" end="300" vehsPerHour="37.80579264406908"/>
  <flow id="JF63082" begin="240" fromJunction="J4" toJunction="J0" end="300" vehsPerHour="67.18683163928499"/>
  <flow id="JF63083" begin="240" fromJunction="J4" toJunction="J3" end="300" vehsPerHour="66.54569090962389"/>
  <flow id="JF63084" begin="300" fromJunction="J0" toJunction="J3" end="360" vehsPerHour="249.37362776245726"/>
  <flow id="JF63085" begin="300" fromJunction="J3" toJunction="J0" end="360" vehsPerHour="14.232472038975482"/>
  <flow id="JF63086" begin="300" fromJunction="J0" toJunction="J7" end="360" vehsPerHour="16.46865825714507"/>
  <flow id="JF63087" begin="300" fromJunction="J0" toJunction="J6" end="360" vehsPerHour="26.786449407877015"/>
  <flow id="JF63088" begin="300" fromJunction="J0" toJunction="J5" end="360" vehsPerHour="101.6854257603986"/>
  <flow id="JF63089" begin="300" fromJunction="J0" toJunction="J4" end="360" vehsPerHour="79.7721134287958"/>
  <flow id="JF63090" begin="300" fromJunction="J3" toJunction="J7" end="360" vehsPerHour="95.98252776157756"/>
  <flow id="JF63091" begin="300" fromJunction="J3" toJunction="J6" end="360" vehsPerHour="127.82612269571442"/>
  <flow id="JF63092" begin="300" fromJunction="J3" toJunction="J5" end="360" vehsPerHour="86.13926491854004"/>
  <flow id="JF63093" begin="300" fromJunction="J3" toJunction="J4" end="360" vehsPerHour="47.11175028310416"/>
  <flow id="JF63094" begin="300" fromJunction="J7" toJunction="J6" end="360" vehsPerHour="4.7580013917738"/>
  <flow id="JF63095" begin="300" fromJunction="J7" toJunction="J5" end="360" vehsPerHour="20.0774895792656"/>
  <flow id="JF63096" begin="300" fromJunction="J7" toJunction="J4" end="360" vehsPerHour="14.215267229998124"/>
  <flow id="JF63097" begin="300" fromJunction="J6" toJunction="J7" end="360" vehsPerHour="2.0204479889984355"/>
  <flow id="JF63098" begin="300" fromJunction="J6" toJunction="J5" end="360" vehsPerHour="37.75669767835706"/>
  <flow id="JF63099" begin="300" fromJunction="J6" toJunction="J4" end="360" vehsPerHour="18.810269916693336"/>
  <flow id="JF63100" begin="300" fromJunction="J5" toJunction="J7" end="360" vehsPerHour="17.745986277787523"/>
  <flow id="JF63101" begin="300" fromJunction="J5" toJunction="J6" end="360" vehsPerHour="56.49794226649615"/>
  <flow id="JF63102" begin="300" fromJunction="J5" toJunction="J4" end="360" vehsPerHour="35.42906026204014"/>
  <flow id="JF63103" begin="300" fromJunction="J4" toJunction="J7" end="360" vehsPerHour="35.99598263016511"/>
  <flow id="JF63104" begin="300" fromJunction="J4" toJunction="J6" end="360" vehsPerHour="30.058027972436307"/>
  <flow id="JF63105" begin="300" fromJunction="J4" toJunction="J5" end="360" vehsPerHour="43.549540466091486"/>
  <flow id="JF63106" begin="300" fromJunction="J7" toJunction="J0" end="360" vehsPerHour="41.72808928679758"/>
  <flow id="JF63107" begin="300" fromJunction="J7" toJunction="J3" end="360" vehsPerHour="57.81826578221586"/>
  <flow id="JF63108" begin="300" fromJunction="J6" toJunction="J0" end="360" vehsPerHour="9.403810475842969"/>
  <flow id="JF63109" begin="300" fromJunction="J6" toJunction="J3" end="360" vehsPerHour="56.049189678122005"/>
  <flow id="JF63110" begin="300" fromJunction="J5" toJunction="J0" end="360" vehsPerHour="20.43693673818239"/>
  <flow id="JF63111" begin="300" fromJunction="J5" toJunction="J3" end="360" vehsPerHour="46.0491165703428"/>
  <flow id="JF63112" begin="300" fromJunction="J4" toJunction="J0" end="360" vehsPerHour="36.86921724936551"/>
  <flow id="JF63113" begin="300" fromJunction="J4" toJunction="J3" end="360" vehsPerHour="41.358973351428475"/>
  <flow id="JF63114" begin="360" fromJunction="J0" toJunction="J3" end="420" vehsPerHour="107.19044346194978"/>
  <flow id="JF63115" begin="360" fromJunction="J3" toJunction="J0" end="420" vehsPerHour="201.64982111364853"/>
  <flow id="JF63116" begin="360" fromJunction="J0" toJunction="J7" end="420" vehsPerHour="27.548695356372626"/>
  <flow id="JF63117" begin="360" fromJunction="J0" toJunction="J6" end="420" vehsPerHour="50.19077250314111"/>
  <flow id="JF63118" begin="360" fromJunction="J0" toJunction="J5" end="420" vehsPerHour="21.718258231775454"/>
  <flow id="JF63119" begin="360" fromJunction="J0" toJunction="J4" end="420" vehsPerHour="38.29133498396872"/>
  <flow id="JF63120" begin="360" fromJunction="J3" toJunction="J7" end="420" vehsPerHour="135.64209235438955"/>
  <flow id="JF63121" begin="360" fromJunction="J3" toJunction="J6" end="420" vehsPerHour="87.68518969027694"/>
  <flow id="JF63122" begin="360" fromJunction="J3" toJunction="J5" end="420" vehsPerHour="61.728024338886144"/>
  <flow id="JF63123" begin="360" fromJunction="J3" toJunction="J4" end="420" vehsPerHour="58.80363741992758"/>
  <flow id="JF63124" begin="360" fromJunction="J7" toJunction="J6" end="420" vehsPerHour="59.028230849400906"/>
  <flow id="JF63125" begin="360" fromJunction="J7" toJunction="J5" end="420" vehsPerHour="50.78117153646661"/>
  <flow id="JF63126" begin="360" fromJunction="J7" toJunction="J4" end="420" vehsPerHour="5.249633797324409"/>
  <flow id="JF63127" begin="360" fromJunction="J6" toJunction="J7" end="420" vehsPerHour="20.255128744696535"/>
  <flow id="JF63128" begin="360" fromJunction="J6" toJunction="J5" end="420" vehsPerHour="2.6058264399216453"/>
  <flow id="JF63129" begin="360" fromJunction="J6" toJunction="J4" end="420" vehsPerHour="9.752677766178357"/>
  <flow id="JF63130" begin="360" fromJunction="J5" toJunction="J7" end="420" vehsPerHour="59.05040995348682"/>
  <flow id="JF63131" begin="360" fromJunction="J5" toJunction="J6" end="420" vehsPerHour="49.4111792127579"/>
  <flow id="JF63132" begin="360" fromJunction="J5" toJunction="J4" end="420" vehsPerHour="8.722588223511137"/>
  <flow id="JF63133" begin="360" fromJunction="J4" toJunction="J7" end="420" vehsPerHour="68.2977150729512"/>
  <flow id="JF63134" begin="360" fromJunction="J4" toJunction="J6" end="420" vehsPerHour="68.52451757091987"/>
  <flow id="JF63135" begin="360" fromJunction="J4" toJunction="J5" end="420" vehsPerHour="13.83962576370446"/>
  <flow id="JF63136" begin="360" fromJunction="J7" toJunction="J0" end="420" vehsPerHour="35.47304481210483"/>
  <flow id="JF63137" begin="360" fromJunction="J7" toJunction="J3" end="420" vehsPerHour="20.9594905841217"/>
  <flow id="JF63138" begin="360" fromJunction="J6" toJunction="J0" end="420" vehsPerHour="38.42938020825194"/>
  <flow id="JF63139" begin="360" fromJunction="J6" toJunction="J3" end="420" vehsPerHour="20.750005427815186"/>
  <flow id="JF63140" begin="360" fromJunction="J5" toJunction="J0" end="420" vehsPerHour="39.09291587183979"/>
  <flow id="JF63141" begin="360" fromJunction="J5" toJunction="J3" end="420" vehsPerHour="9.949060374134726"/>
  <flow id="JF63142" begin="360" fromJunction="J4" toJunction="J0" end="420" vehsPerHour="33.05069639925697"/>
  <flow id="JF63143" begin="360" fromJunction="J4" toJunction="J3" end="420" vehsPerHour="54.34164974278"/>
  <flow id="JF63144" begin="420" fromJunction="J0" toJunction="J3" end="480" vehsPerHour="205.87152963759948"/>
  <flow id="JF63145" begin="420" fromJunction="J3" toJunction="J0" end="480" vehsPerHour="60.04826575984265"/>
  <flow id="JF63146" begin="420" fromJunction="J0" toJunction="J7" end="480" vehsPerHour="73.63725335840577"/>
  <flow id="JF63147" begin="420" fromJunction="J0" toJunction="J6" end="480" vehsPerHour="52.54268945620404"/>
  <flow id="JF63148" begin="420" fromJunction="J0" toJunction="J5" end="480" vehsPerHour="64.15432636212958"/>
  <flow id="JF63149" begin="420" fromJunction="J0" toJunction="J4" end="480" vehsPerHour="4.744579657373983"/>
  <flow id="JF63150" begin="420" fromJunction="J3" toJunction="J7" end="480" vehsPerHour="28.58269972066885"/>
  <flow id="JF63151" begin="420" fromJunction="J3" toJunction="J6" end="480" vehsPerHour="77.32983763317387"/>
  <flow id="JF63152" begin="420" fromJunction="J3" toJunction="J5" end="480" vehsPerHour="5.595108907209761"/>
  <flow id="JF63153" begin="420" fromJunction="J3" toJunction="J4" end="480" vehsPerHour="27.113331199827556"/>
  <flow id="JF63154" begin="420" fromJunction="J7" toJunction="J6" end="480" vehsPerHour="35.88989935142129"/>
  <flow id="JF63155" begin="420" fromJunction="J7" toJunction="J5" end="480" vehsPerHour="7.944308622432958"/>
  <flow id="JF63156" begin="420" fromJunction="J7" toJunction="J4" end="480" vehsPerHour="22.01283105078057"/>
  <flow id="JF63157" begin="420" fromJunction="J6" toJunction="J7" end="480" vehsPerHour="20.431343224991686"/>
  <flow id="JF63158" begin="420" fromJunction="J6" toJunction="J5" end="480" vehsPerHour="34.91351624925306"/>
  <flow id="JF63159" begin="420" fromJunction="J6" toJunction="J4" end="480" vehsPerHour="30.97971972121337"/>
  <flow id="JF63160" begin="420" fromJunction="J5" toJunction="J7" end="480" vehsPerHour="58.91947137055949"/>
  <flow id="JF63161" begin="420" fromJunction="J5" toJunction="J6" end="480" vehsPerHour="1.290703042556932"/>
  <flow id="JF63162" begin="420" fromJunction="J5" toJunction="J4" end="480" vehsPerHour="45.07467066342404"/>
  <flow id="JF63163" begin="420" fromJunction="J4" toJunction="J7" end="480" vehsPerHour="23.477364528138143"/>
  <flow id="JF63164" begin="420" fromJunction="J4" toJunction="J6" end="480" vehsPerHour="35.32078927836449"/>
  <flow id="JF63165" begin="420" fromJunction="J4" toJunction="J5" end="480" vehsPerHour="61.28127501958117"/>
  <flow id="JF63166" begin="420" fromJunction="J7" toJunction="J0" end="480" vehsPerHour="9.82920713124588"/>
  <flow id="JF63167" begin="420" fromJunction="J7" toJunction="J3" end="480" vehsPerHour="18.156542613233228"/>
  <flow id="JF63168" begin="420" fromJunction="J6" toJunction="J0" end="480" vehsPerHour="11.927851282582287"/>
  <flow id="JF63169" begin="420" fromJunction="J6" toJunction="J3" end="480" vehsPerHour="32.66860952537536"/>
  <flow id="JF63170" begin="420" fromJunction="J5" toJunction="J0" end="480" vehsPerHour="42.48116511830711"/>
  <flow id="JF63171" begin="420" fromJunction="J5" toJunction="J3" end="480" vehsPerHour="20.469858592893072"/>
  <flow id="JF63172" begin="420" fromJunction="J4" toJunction="J0" end="480" vehsPerHour="24.14272562539321"/>
  <flow id="JF63173" begin="420" fromJunction="J4" toJunction="J3" end="480" vehsPerHour="63.758754443519976"/>
  <flow id="JF63174" begin="480" fromJunction="J0" toJunction="J3" end="540" vehsPerHour="380.23476050029905"/>
  <flow id="JF63175" begin="480" fromJunction="J3" toJunction="J0" end="540" vehsPerHour="168.03605811617086"/>
  <flow id="JF63176" begin="480" fromJunction="J0" toJunction="J7" end="540" vehsPerHour="22.849280871124705"/>
  <flow id="JF63177" begin="480" fromJunction="J0" toJunction="J6" end="540" vehsPerHour="119.09478235040754"/>
  <flow id="JF63178" begin="480" fromJunction="J0" toJunction="J5" end="540" vehsPerHour="56.39418546942854"/>
  <flow id="JF63179" begin="480" fromJunction="J0" toJunction="J4" end="540" vehsPerHour="35.55424940805182"/>
  <flow id="JF63180" begin="480" fromJunction="J3" toJunction="J7" end="540" vehsPerHour="21.018562007054605"/>
  <flow id="JF63181" begin="480" fromJunction="J3" toJunction="J6" end="540" vehsPerHour="123.07624690603211"/>
  <flow id="JF63182" begin="480" fromJunction="J3" toJunction="J5" end="540" vehsPerHour="100.05371636388554"/>
  <flow id="JF63183" begin="480" fromJunction="J3" toJunction="J4" end="540" vehsPerHour="98.640981753118"/>
  <flow id="JF63184" begin="480" fromJunction="J7" toJunction="J6" end="540" vehsPerHour="31.338235682051284"/>
  <flow id="JF63185" begin="480" fromJunction="J7" toJunction="J5" end="540" vehsPerHour="55.603680743253385"/>
  <flow id="JF63186" begin="480" fromJunction="J7" toJunction="J4" end="540" vehsPerHour="63.90371360818835"/>
  <flow id="JF63187" begin="480" fromJunction="J6" toJunction="J7" end="540" vehsPerHour="48.66712771716015"/>
  <flow id="JF63188" begin="480" fromJunction="J6" toJunction="J5" end="540" vehsPerHour="13.41940446077495"/>
  <flow id="JF63189" begin="480" fromJunction="J6" toJunction="J4" end="540" vehsPerHour="14.698948196912825"/>
  <flow id="JF63190" begin="480" fromJunction="J5" toJunction="J7" end="540" vehsPerHour="54.810382102680705"/>
  <flow id="JF63191" begin="480" fromJunction="J5" toJunction="J6" end="540" vehsPerHour="50.539218574216264"/>
  <flow id="JF63192" begin="480" fromJunction="J5" toJunction="J4" end="540" vehsPerHour="6.381110658828764"/>
  <flow id="JF63193" begin="480" fromJunction="J4" toJunction="J7" end="540" vehsPerHour="5.792004251654222"/>
  <flow id="JF63194" begin="480" fromJunction="J4" toJunction="J6" end="540" vehsPerHour="66.37771225125122"/>
  <flow id="JF63195" begin="480" fromJunction="J4" toJunction="J5" end="540" vehsPerHour="59.211393774535935"/>
  <flow id="JF63196" begin="480" fromJunction="J7" toJunction="J0" end="540" vehsPerHour="45.0009394320437"/>
  <flow id="JF63197" begin="480" fromJunction="J7" toJunction="J3" end="540" vehsPerHour="51.73737205023562"/>
  <flow id="JF63198" begin="480" fromJunction="J6" toJunction="J0" end="540" vehsPerHour="40.495691906330364"/>
  <flow id="JF63199" begin="480" fromJunction="J6" toJunction="J3" end="540" vehsPerHour="4.088329200215907"/>
  <flow id="JF63200" begin="480" fromJunction="J5" toJunction="J0" end="540" vehsPerHour="45.444115932674535"/>
  <flow id="JF63201" begin="480" fromJunction="J5" toJunction="J3" end="540" vehsPerHour="12.352787360861473"/>
  <flow id="JF63202" begin="480" fromJunction="J4" toJunction="J0" end="540" vehsPerHour="48.87293877031961"/>
  <flow id="JF63203" begin="480" fromJunction="J4" toJunction="J3" end="540" vehsPerHour="15.464272626446009"/>
  <flow id="JF63204" begin="540" fromJunction="J0" toJunction="J3" end="600" vehsPerHour="269.5541252207186"/>
  <flow id="JF63205" begin="540" fromJunction="J3" toJunction="J0" end="600" vehsPerHour="324.87313501474"/>
  <flow id="JF63206" begin="540" fromJunction="J0" toJunction="J7" end="600" vehsPerHour="127.6072049511373"/>
  <flow id="JF63207" begin="540" fromJunction="J0" toJunction="J6" end="600" vehsPerHour="75.9847620987778"/>
  <flow id="JF63208" begin="540" fromJunction="J0" toJunction="J5" end="600" vehsPerHour="37.47522501851537"/>
  <flow id="JF63209" begin="540" fromJunction="J0" toJunction="J4" end="600" vehsPerHour="48.91559826455624"/>
  <flow id="JF63210" begin="540" fromJunction="J3" toJunction="J7" end="600" vehsPerHour="116.92459360558465"/>
  <flow id="JF63211" begin="540" fromJunction="J3" toJunction="J6" end="600" vehsPerHour="16.352040390332018"/>
  <flow id="JF63212" begin="540" fromJunction="J3" toJunction="J5" end="600" vehsPerHour="126.61533480790284"/>
  <flow id="JF63213" begin="540" fromJunction="J3" toJunction="J4" end="600" vehsPerHour="94.10978211872037"/>
  <flow id="JF63214" begin="540" fromJunction="J7" toJunction="J6" end="600" vehsPerHour="13.858908924166894"/>
  <flow id="JF63215" begin="540" fromJunction="J7" toJunction="J5" end="600" vehsPerHour="35.369674217040114"/>
  <flow id="JF63216" begin="540" fromJunction="J7" toJunction="J4" end="600" vehsPerHour="0.5747531437075007"/>
  <flow id="JF63217" begin="540" fromJunction="J6" toJunction="J7" end="600" vehsPerHour="23.061432461470933"/>
  <flow id="JF63218" begin="540" fromJunction="J6" toJunction="J5" end="600" vehsPerHour="17.442164452074966"/>
  <flow id="JF63219" begin="540" fromJunction="J6" toJunction="J4" end="600" vehsPerHour="50.27137135876657"/>
  <flow id="JF63220" begin="540" fromJunction="J5" toJunction="J7" end="600" vehsPerHour="40.46508586463689"/>
  <flow id="JF63221" begin="540" fromJunction="J5" toJunction="J6" end="600" vehsPerHour="9.594436150929619"/>
  <flow id="JF63222" begin="540" fromJunction="J5" toJunction="J4" end="600" vehsPerHour="58.23348808415209"/>
  <flow id="JF63223" begin="540" fromJunction="J4" toJunction="J7" end="600" vehsPerHour="16.6444320195366"/>
  <flow id="JF63224" begin="540" fromJunction="J4" toJunction="J6" end="600" vehsPerHour="56.77276767526439"/>
  <flow id="JF63225" begin="540" fromJunction="J4" toJunction="J5" end="600" vehsPerHour="35.112779006465225"/>
  <flow id="JF63226" begin="540" fromJunction="J7" toJunction="J0" end="600" vehsPerHour="31.512561630126196"/>
  <flow id="JF63227" begin="540" fromJunction="J7" toJunction="J3" end="600" vehsPerHour="42.303178000275935"/>
  <flow id="JF63228" begin="540" fromJunction="J6" toJunction="J0" end="600" vehsPerHour="19.771357723030643"/>
  <flow id="JF63229" begin="540" fromJunction="J6" toJunction="J3" end="600" vehsPerHour="29.766782156803547"/>
  <flow id="JF63230" begin="540" fromJunction="J5" toJunction="J0" end="600" vehsPerHour="16.16931195043368"/>
  <flow id="JF63231" begin="540" fromJunction="J5" toJunction="J3" end="600" vehsPerHour="24.243481158710658"/>
  <flow id="JF63232" begin="540" fromJunction="J4" toJunction="J0" end="600" vehsPerHour="57.9990748397693"/>
  <flow id="JF63233" begin="540" fromJunction="J4" toJunction="J3" end="600" vehsPerHour="56.78122209692234"/>
  <flow id="JF63234" begin="600" fromJunction="J0" toJunction="J3" end="660" vehsPerHour="263.1026447937941"/>
  <flow id="JF63235" begin="600" fromJunction="J3" toJunction="J0" end="660" vehsPerHour="261.3994330337294"/>
  <flow id="JF63236" begin="600" fromJunction="J0" toJunction="J7" end="660" vehsPerHour="87.96978415298102"/>
  <flow id="JF63237" begin="600" fromJunction="J0" toJunction="J6" end="660" vehsPerHour="77.05620317011619"/>
  <flow id="JF63238" begin="600" fromJunction="J0" toJunction="J5" end="660" vehsPerHour="108.88278452466534"/>
  <flow id="JF63239" begin="600" fromJunction="J0" toJunction="J4" end="660" vehsPerHour="74.18505886934747"/>
  <flow id="JF63240" begin="600" fromJunction="J3" toJunction="J7" end="660" vehsPerHour="2.2874193154813844"/>
  <flow id="JF63241" begin="600" fromJunction="J3" toJunction="J6" end="660" vehsPerHour="29.134839900993732"/>