<?xml version="1.0" encoding="UTF-8"?>
<routes xmlns:xsi="http://www.w3.org/2001/XMLSchema-instance" xsi:noNamespaceSchemaLocation="http://sumo.dlr.de/xsd/routes_file.xsd">
  <flow id="JF54874" begin="0" fromJunction="J0" toJunction="J3" end="60" vehsPerHour="336.5685781659812"/>
  <flow id="JF54875" begin="0" fromJunction="J3" toJunction="J0" end="60" vehsPerHour="224.15710569176133"/>
  <flow id="JF54876" begin="0" fromJunction="J0" toJunction="J7" end="60" vehsPerHour="90.90338199056217"/>
  <flow id="JF54877" begin="0" fromJunction="J0" toJunction="J6" end="60" vehsPerHour="136.95203349477893"/>
  <flow id="JF54878" begin="0" fromJunction="J0" toJunction="J5" end="60" vehsPerHour="99.10982389276514"/>
  <flow id="JF54879" begin="0" fromJunction="J0" toJunction="J4" end="60" vehsPerHour="72.91328892466542"/>
  <flow id="JF54880" begin="0" fromJunction="J3" toJunction="J7" end="60" vehsPerHour="27.43038079442459"/>
  <flow id="JF54881" begin="0" fromJunction="J3" toJunction="J6" end="60" vehsPerHour="102.51923823886618"/>
  <flow id="JF54882" begin="0" fromJunction="J3" toJunction="J5" end="60" vehsPerHour="83.57322165166055"/>
  <flow id="JF54883" begin="0" fromJunction="J3" toJunction="J4" end="60" vehsPerHour="108.15003352793333"/>
  <flow id="JF54884" begin="0" fromJunction="J7" toJunction="J6" end="60" vehsPerHour="45.188402573276726"/>
  <flow id="JF54885" begin="0" fromJunction="J7" toJunction="J5" end="60" vehsPerHour="58.286347120474296"/>
  <flow id="JF54886" begin="0" fromJunction="J7" toJunction="J4" end="60" vehsPerHour="21.52212896518758"/>
  <flow id="JF54887" begin="0" fromJunction="J6" toJunction="J7" end="60" vehsPerHour="54.53262127338026"/>
  <flow id="JF54888" begin="0" fromJunction="J6" toJunction="J5" end="60" vehsPerHour="52.53663793291963"/>
  <flow id="JF54889" begin="0" fromJunction="J6" toJunction="J4" end="60" vehsPerHour="50.03803370048303"/>
  <flow id="JF54890" begin="0" fromJunction="J5" toJunction="J7" end="60" vehsPerHour="61.13732069845891"/>
  <flow id="JF54891" begin="0" fromJunction="J5" toJunction="J6" end="60" vehsPerHour="14.1224146065345"/>
  <flow id="JF54892" begin="0" fromJunction="J5" toJunction="J4" end="60" vehsPerHour="54.2022312628236"/>
  <flow id="JF54893" begin="0" fromJunction="J4" toJunction="J7" end="60" vehsPerHour="52.9639047268434"/>
  <flow id="JF54894" begin="0" fromJunction="J4" toJunction="J6" end="60" vehsPerHour="54.956995680718514"/>
  <flow id="JF54895" begin="0" fromJunction="J4" toJunction="J5" end="60" vehsPerHour="22.016411255007192"/>
  <flow id="JF54896" begin="0" fromJunction="J7" toJunction="J0" end="60" vehsPerHour="31.246745199755797"/>
  <flow id="JF54897" begin="0" fromJunction="J7" toJunction="J3" end="60" vehsPerHour="37.0705008253329"/>
  <flow id="JF54898" begin="0" fromJunction="J6" toJunction="J0" end="60" vehsPerHour="35.92965364080976"/>
  <flow id="JF54899" begin="0" fromJunction="J6" toJunction="J3" end="60" vehsPerHour="61.19960495614842"/>
  <flow id="JF54900" begin="0" fromJunction="J5" toJunction="J0" end="60" vehsPerHour="46.346754373063504"/>
  <flow id="JF54901" begin="0" fromJunction="J5" toJunction="J3" end="60" vehsPerHour="67.1349078718974"/>
  <flow id="JF54902" begin="0" fromJunction="J4" toJunction="J0" end="60" vehsPerHour="31.859622178129335"/>
  <flow id="JF54903" begin="0" fromJunction="J4" toJunction="J3" end="60" vehsPerHour="25.351230631036685"/>
  <flow id="JF54904" begin="60" fromJunction="J0" toJunction="J3" end="120" vehsPerHour="180.2288437333085"/>
  <flow id="JF54905" begin="60" fromJunction="J3" toJunction="J0" end="120" vehsPerHour="334.57258490835136"/>
  <flow id="JF54906" begin="60" fromJunction="J0" toJunction="J7" end="120" vehsPerHour="38.70593806241608"/>
  <flow id="JF54907" begin="60" fromJunction="J0" toJunction="J6" end="120" vehsPerHour="74.46414019326227"/>
  <flow id="JF54908" begin="60" fromJunction="J0" toJunction="J5" end="120" vehsPerHour="136.79087648791077"/>
  <flow id="JF54909" begin="60" fromJunction="J0" toJunction="J4" end="120" vehsPerHour="76.67563383483078"/>
  <flow id="JF54910" begin="60" fromJunction="J3" toJunction="J7" end="120" vehsPerHour="1.4812665632511222"/>
  <flow id="JF54911" begin="60" fromJunction="J3" toJunction="J6" end="120" vehsPerHour="62.59241223541284"/>
  <flow id="JF54912" begin="60" fromJunction="J3" toJunction="J5" end="120" vehsPerHour="15.558829086271944"/>
  <flow id="JF54913" begin="60" fromJunction="J3" toJunction="J4" end="120" vehsPerHour="97.2493961117429"/>
  <flow id="JF54914" begin="60" fromJunction="J7" toJunction="J6" end="120" vehsPerHour="47.85663178857824"/>
  <flow id="JF54915" begin="60" fromJunction="J7" toJunction="J5" end="120" vehsPerHour="60.499544924540764"/>
  <flow id="JF54916" begin="60" fromJunction="J7" toJunction="J4" end="120" vehsPerHour="42.90931523901122"/>
  <flow id="JF54917" begin="60" fromJunction="J6" toJunction="J7" end="120" vehsPerHour="34.67162403556769"/>
  <flow id="JF54918" begin="60" fromJunction="J6" toJunction="J5" end="120" vehsPerHour="44.80880715418115"/>
  <flow id="JF54919" begin="60" fromJunction="J6" toJunction="J4" end="120" vehsPerHour="0.6068666227925819"/>
  <flow id="JF54920" begin="60" fromJunction="J5" toJunction="J7" end="120" vehsPerHour="20.553005729095343"/>
  <flow id="JF54921" begin="60" fromJunction="J5" toJunction="J6" end="120" vehsPerHour="2.0739219573142975"/>
  <flow id="JF54922" begin="60" fromJunction="J5" toJunction="J4" end="120" vehsPerHour="18.927528165277252"/>
  <flow id="JF54923" begin="60" fromJunction="J4" toJunction="J7" end="120" vehsPerHour="35.92711631026889"/>
  <flow id="JF54924" begin="60" fromJunction="J4" toJunction="J6" end="120" vehsPerHour="32.61018519619818"/>
  <flow id="JF54925" begin="60" fromJunction="J4" toJunction="J5" end="120" vehsPerHour="46.14385822673416"/>
  <flow id="JF54926" begin="60" fromJunction="J7" toJunction="J0" end="120" vehsPerHour="52.78885824723036"/>
  <flow id="JF54927" begin="60" fromJunction="J7" toJunction="J3" end="120" vehsPerHour="58.90518749687815"/>
  <flow id="JF54928" begin="60" fromJunction="J6" toJunction="J0" end="120" vehsPerHour="7.766646081546988"/>
  <flow id="JF54929" begin="60" fromJunction="J6" toJunction="J3" end="120" vehsPerHour="41.34049554917317"/>
  <flow id="JF54930" begin="60" fromJunction="J5" toJunction="J0" end="120" vehsPerHour="39.227659130956475"/>
  <flow id="JF54931" begin="60" fromJunction="J5" toJunction="J3" end="120" vehsPerHour="18.01852963720538"/>
  <flow id="JF54932" begin="60" fromJunction="J4" toJunction="J0" end="120" vehsPerHour="17.043096617499717"/>
  <flow id="JF54933" begin="60" fromJunction="J4" toJunction="J3" end="120" vehsPerHour="63.37996762178274"/>
  <flow id="JF54934" begin="120" fromJunction="J0" toJunction="J3" end="180" vehsPerHour="23.31458425656737"/>
  <flow id="JF54935" begin="120" fromJunction="J3" toJunction="J0" end="180" vehsPerHour="11.09476420252491"/>
  <flow id="JF54936" begin="120" fromJunction="J0" toJunction="J7" end="180" vehsPerHour="79.4813270699047"/>
  <flow id="JF54937" begin="120" fromJunction="J0" toJunction="J6" end="180" vehsPerHour="23.636695168644962"/>
  <flow id="JF54938" begin="120" fromJunction="J0" toJunction="J5" end="180" vehsPerHour="116.03093052720759"/>
  <flow id="JF54939" begin="120" fromJunction="J0" toJunction="J4" end="180" vehsPerHour="88.7823992469595"/>
  <flow id="JF54940" begin="120" fromJunction="J3" toJunction="J7" end="180" vehsPerHour="39.31032560785084"/>
  <flow id="JF54941" begin="120" fromJunction="J3" toJunction="J6" end="180" vehsPerHour="126.92419663799521"/>
  <flow id="JF54942" begin="120" fromJunction="J3" toJunction="J5" end="180" vehsPerHour="1.9881641160336943"/>
  <flow id="JF54943" begin="120" fromJunction="J3" toJunction="J4" end="180" vehsPerHour="26.101890333346873"/>
  <flow id="JF54944" begin="120" fromJunction="J7" toJunction="J6" end="180" vehsPerHour="8.687693945637914"/>
  <flow id="JF54945" begin="120" fromJunction="J7" toJunction="J5" end="180" vehsPerHour="41.82009792900501"/>
  <flow id="JF54946" begin="120" fromJunction="J7" toJunction="J4" end="180" vehsPerHour="62.80410246842546"/>
  <flow id="JF54947" begin="120" fromJunction="J6" toJunction="J7" end="180" vehsPerHour="39.56835078777957"/>
  <flow id="JF54948" begin="120" fromJunction="J6" toJunction="J5" end="180" vehsPerHour="33.139234809303964"/>
  <flow id="JF54949" begin="120" fromJunction="J6" toJunction="J4" end="180" vehsPerHour="21.50173486351727"/>
  <flow id="JF54950" begin="120" fromJunction="J5" toJunction="J7" end="180" vehsPerHour="9.754531660832242"/>
  <flow id="JF54951" begin="120" fromJunction="J5" toJunction="J6" end="180" vehsPerHour="27.15862010322118"/>
  <flow id="JF54952" begin="120" fromJunction="J5" toJunction="J4" end="180" vehsPerHour="31.246121226690434"/>
  <flow id="JF54953" begin="120" fromJunction="J4" toJunction="J7" end="180" vehsPerHour="20.74556501289994"/>
  <flow id="JF54954" begin="120" fromJunction="J4" toJunction="J6" end="180" vehsPerHour="62.43381537663251"/>
  <flow id="JF54955" begin="120" fromJunction="J4" toJunction="J5" end="180" vehsPerHour="32.22325340040068"/>
  <flow id="JF54956" begin="120" fromJunction="J7" toJunction="J0" end="180" vehsPerHour="8.510011563949016"/>
  <flow id="JF54957" begin="120" fromJunction="J7" toJunction="J3" end="180" vehsPerHour="30.406200636685465"/>
  <flow id="JF54958" begin="120" fromJunction="J6" toJunction="J0" end="180" vehsPerHour="10.940563648029917"/>
  <flow id="JF54959" begin="120" fromJunction="J6" toJunction="J3" end="180" vehsPerHour="46.04070777026152"/>
  <flow id="JF54960" begin="120" fromJunction="J5" toJunction="J0" end="180" vehsPerHour="60.030555427918976"/>
  <flow id="JF54961" begin="120" fromJunction="J5" toJunction="J3" end="180" vehsPerHour="32.43354890916663"/>
  <flow id="JF54962" begin="120" fromJunction="J4" toJunction="J0" end="180" vehsPerHour="50.16346969250164"/>
  <flow id="JF54963" begin="120" fromJunction="J4" toJunction="J3" end="180" vehsPerHour="8.436184200423066"/>
  <flow id="JF54964" begin="180" fromJunction="J0" toJunction="J3" end="240" vehsPerHour="418.83524034012396"/>
  <flow id="JF54965" begin="180" fromJunction="J3" toJunction="J0" end="240" vehsPerHour="531.0617534722134"/>
  <flow id="JF54966" begin="180" fromJunction="J0" toJunction="J7" end="240" vehsPerHour="98.86571537283004"/>
  <flow id="JF54967" begin="180" fromJunction="J0" toJunction="J6" end="240" vehsPerHour="9.361259134556986"/>
  <flow id="JF54968" begin="180" fromJunction="J0" toJunction="J5" end="240" vehsPerHour="2.0627778268486385"/>
  <flow id="JF54969" begin="180" fromJunction="J0" toJunction="J4" end="240" vehsPerHour="76.41757626133364"/>
  <flow id="JF54970" begin="180" fromJunction="J3" toJunction="J7" end="240" vehsPerHour="38.057400278945586"/>
  <flow id="JF54971" begin="180" fromJunction="J3" toJunction="J6" end="240" vehsPerHour="128.7902096019641"/>
  <flow id="JF54972" begin="180" fromJunction="J3" toJunction="J5" end="240" vehsPerHour="9.745275639430032"/>
  <flow id="JF54973" begin="180" fromJunction="J3" toJunction="J4" end="240" vehsPerHour="42.00781114539469"/>
  <flow id="JF54974" begin="180" fromJunction="J7" toJunction="J6" end="240" vehsPerHour="18.127521804071943"/>
  <flow id="JF54975" begin="180" fromJunction="J7" toJunction="J5" end="240" vehsPerHour="43.7720790988825"/>
  <flow id="JF54976" begin="180" fromJunction="J7" toJunction="J4" end="240" vehsPerHour="64.183020492027"/>
  <flow id="JF54977" begin="180" fromJunction="J6" toJunction="J7" end="240" vehsPerHour="49.93215567869734"/>
  <flow id="JF54978" begin="180" fromJunction="J6" toJunction="J5" end="240" vehsPerHour="6.686420033222495"/>
  <flow id="JF54979" begin="180" fromJunction="J6" toJunction="J4" end="240" vehsPerHour="22.14986737337992"/>
  <flow id="JF54980" begin="180" fromJunction="J5" toJunction="J7" end="240" vehsPerHour="22.0587090127346"/>
  <flow id="JF54981" begin="180" fromJunction="J5" toJunction="J6" end="240" vehsPerHour="7.407253296638288"/>
  <flow id="JF54982" begin="180" fromJunction="J5" toJunction="J4" end="240" vehsPerHour="6.491790570088172"/>
  <flow id="JF54983" begin="180" fromJunction="J4" toJunction="J7" end="240" vehsPerHour="51.148100895483864"/>
  <flow id="JF54984" begin="180" fromJunction="J4" toJunction="J6" end="240" vehsPerHour="60.84173490435495"/>
  <flow id="JF54985" begin="180" fromJunction="J4" toJunction="J5" end="240" vehsPerHour="68.4329011199041"/>
  <flow id="JF54986" begin="180" fromJunction="J7" toJunction="J0" end="240" vehsPerHour="61.550614054026944"/>
  <flow id="JF54987" begin="180" fromJunction="J7" toJunction="J3" end="240" vehsPerHour="68.62155326360697"/>
  <flow id="JF54988" begin="180" fromJunction="J6" toJunction="J0" end="240" vehsPerHour="37.62595897881343"/>
  <flow id="JF54989" begin="180" fromJunction="J6" toJunction="J3" end="240" vehsPerHour="60.51733211348776"/>
  <flow id="JF54990" begin="180" fromJunction="J5" toJunction="J0" end="240" vehsPerHour="8.932548578076315"/>
  <flow id="JF54991" begin="180" fromJunction="J5" toJunction="J3" end="240" vehsPerHour="11.212723063025376"/>
  <flow id="JF54992" begin="180" fromJunction="J4" toJunction="J0" end="240" vehsPerHour="32.06723278585109"/>
  <flow id="JF54993" begin="180" fromJunction="J4" toJunction="J3" end="240" vehsPerHour="37.94605801957911"/>
  <flow id="JF54994" begin="240" fromJunction="J0" toJunction="J3" end="300" vehsPerHour="125.24221127278898"/>
  <flow id="JF54995" begin="240" fromJunction="J3" toJunction="J0" end="300" vehsPerHour="362.96596789879555"/>
  <flow id="JF54996" begin="240" fromJunction="J0" toJunction="J7" end="300" vehsPerHour="7.599720247082568"/>
  <flow id="JF54997" begin="240" fromJunction="J0" toJunction="J6" end="300" vehsPerHour="127.64625955781067"/>
  <flow id="JF54998" begin="240" fromJunction="J0" toJunction="J5" end="300" vehsPerHour="30.118286415578616"/>
  <flow id="JF54999" begin="240" fromJunction="J0" toJunction="J4" end="300" vehsPerHour="80.31232196207111"/>
  <flow id="JF55000" begin="240" fromJunction="J3" toJunction="J7" end="300" vehsPerHour="80.3118308893739"/>
  <flow id="JF55001" begin="240" fromJunction="J3" toJunction="J6" end="300" vehsPerHour="97.90202795351394"/>
  <flow id="JF55002" begin="240" fromJunction="J3" toJunction="J5" end="300" vehsPerHour="121.95194810710134"/>
  <flow id="JF55003" begin="240" fromJunction="J3" toJunction="J4" end="300" vehsPerHour="37.09969676754567"/>
  <flow id="JF55004" begin="300" fromJunction="J0" toJunction="J3" end="360" vehsPerHour="68.17950436180197"/>
  <flow id="JF55005" begin="300" fromJunction="J3" toJunction="J0" end="360" vehsPerHour="6.805314450887879"/>
  <flow id="JF55006" begin="300" fromJunction="J0" toJunction="J7" end="360" vehsPerHour="15.934351044598623"/>
  <flow id="JF55007" begin="300" fromJunction="J0" toJunction="J6" end="360" vehsPerHour="123.35029516415972"/>
  <flow id="JF55008" begin="300" fromJunction="J0" toJunction="J5" end="360" vehsPerHour="107.38524233898623"/>
  <flow id="JF55009" begin="300" fromJunction="J0" toJunction="J4" end="360" vehsPerHour="7.941071173876634"/>
  <flow id="JF55010" begin="300" fromJunction="J3" toJunction="J7" end="360" vehsPerHour="52.60938065861558"/>
  <flow id="JF55011" begin="300" fromJunction="J3" toJunction="J6" end="360" vehsPerHour="106.15571786784638"/>
  <flow id="JF55012" begin="300" fromJunction="J3" toJunction="J5" end="360" vehsPerHour="60.09455701816138"/>
  <flow id="JF55013" begin="300" fromJunction="J3" toJunction="J4" end="360" vehsPerHour="27.321992843776844"/>
  <flow id="JF55014" begin="300" fromJunction="J7" toJunction="J6" end="360" vehsPerHour="54.80799414125032"/>
  <flow id="JF55015" begin="300" fromJunction="J7" toJunction="J5" end="360" vehsPerHour="30.757092943076035"/>
  <flow id="JF55016" begin="300" fromJunction="J7" toJunction="J4" end="360" vehsPerHour="62.72345906994444"/>
  <flow id="JF55017" begin="300" fromJunction="J6" toJunction="J7" end="360" vehsPerHour="43.923592065501275"/>
  <flow id="JF55018" begin="300" fromJunction="J6" toJunction="J5" end="360" vehsPerHour="28.15284742482989"/>
  <flow id="JF55019" begin="300" fromJunction="J6" toJunction="J4" end="360" vehsPerHour="62.494745849700394"/>
  <flow id="JF55020" begin="300" fromJunction="J5" toJunction="J7" end="360" vehsPerHour="59.13690265759595"/>
  <flow id="JF55021" begin="300" fromJunction="J5" toJunction="J6" end="360" vehsPerHour="55.176662606011064"/>
  <flow id="JF55022" begin="300" fromJunction="J5" toJunction="J4" end="360" vehsPerHour="30.144904712062523"/>
  <flow id="JF55023" begin="300" fromJunction="J4" toJunction="J7" end="360" vehsPerHour="0.8295831275908269"/>
  <flow id="JF55024" begin="300" fromJunction="J4" toJunction="J6" end="360" vehsPerHour="65.55973855269612"/>
  <flow id="JF55025" begin="300" fromJunction="J4" toJunction="J5" end="360" vehsPerHour="65.86315955097409"/>
  <flow id="JF55026" begin="300" fromJunction="J7" toJunction="J0" end="360" vehsPerHour="5.253357048659169"/>
  <flow id="JF55027" begin="300" fromJunction="J7" toJunction="J3" end="360" vehsPerHour="56.23893718922453"/>
  <flow id="JF55028" begin="300" fromJunction="J6" toJunction="J0" end="360" vehsPerHour="23.792361847233337"/>
  <flow id="JF55029" begin="300" fromJunction="J6" toJunction="J3" end="360" vehsPerHour="61.86391173697598"/>
  <flow id="JF55030" begin="300" fromJunction="J5" toJunction="J0" end="360" vehsPerHour="63.66328660709378"/>
  <flow id="JF55031" begin="300" fromJunction="J5" toJunction="J3" end="360" vehsPerHour="5.3495638292157"/>
  <flow id="JF55032" begin="300" fromJunction="J4" toJunction="J0" end="360" vehsPerHour="16.370561430573346"/>
  <flow id="JF55033" begin="300" fromJunction="J4" toJunction="J3" end="360" vehsPerHour="59.883086280414226"/>
  <flow id="JF55034" begin="360" fromJunction="J0" toJunction="J3" end="420" vehsPerHour="224.64193310780175"/>
  <flow id="JF55035" begin="360" fromJunction="J3" toJunction="J0" end="420" vehsPerHour="238.94808157552083"/>
  <flow id="JF55036" begin="360" fromJunction="J0" toJunction="J7" end="420" vehsPerHour="125.43284389986609"/>
  <flow id="JF55037" begin="360" fromJunction="J0" toJunction="J6" end="420" vehsPerHour="71.57959183774227"/>
  <flow id="JF55038" begin="360" fromJunction="J0" toJunction="J5" end="420" vehsPerHour="114.81682026276663"/>
  <flow id="JF55039" begin="360" fromJunction="J0" toJunction="J4" end="420" vehsPerHour="104.86730557460524"/>
  <flow id="JF55040" begin="360" fromJunction="J3" toJunction="J7" end="420" vehsPerHour="111.34364113577936"/>
  <flow id="JF55041" begin="360" fromJunction="J3" toJunction="J6" end="420" vehsPerHour="84.42675389308674"/>
  <flow id="JF55042" begin="360" fromJunction="J3" toJunction="J5" end="420" vehsPerHour="99.74223811877138"/>
  <flow id="JF55043" begin="360" fromJunction="J3" toJunction="J4" end="420" vehsPerHour="105.16972237401485"/>
  <flow id="JF55044" begin="420" fromJunction="J0" toJunction="J3" end="480" vehsPerHour="225.5270848358811"/>
  <flow id="JF55045" begin="420" fromJunction="J3" toJunction="J0" end="480" vehsPerHour="108.08860501468499"/>
  <flow id="JF55046" begin="420" fromJunction="J0" toJunction="J7" end="480" vehsPerHour="101.38699385726859"/>
  <flow id="JF55047" begin="420" fromJunction="J0" toJunction="J6" end="480" vehsPerHour="58.73276836056588"/>
  <flow id="JF55048" begin="420" fromJunction="J0" toJunction="J5" end="480" vehsPerHour="31.194931602755283"/>
  <flow id="JF55049" begin="420" fromJunction="J0" toJunction="J4" end="480" vehsPerHour="75.34728435224464"/>
  <flow id="JF55050" begin="420" fromJunction="J3" toJunction="J7" end="480" vehsPerHour="101.90457648558366"/>
  <flow id="JF55051" begin="420" fromJunction="J3" toJunction="J6" end="480" vehsPerHour="9.35256626254563"/>
  <flow id="JF55052" begin="420" fromJunction="J3" toJunction="J5" end="480" vehsPerHour="121.14524437002547"/>
  <flow id="JF55053" begin="420" fromJunction="J3" toJunction="J4" end="480" vehsPerHour="12.795803958761988"/>
  <flow id="JF55054" begin="480" fromJunction="J0" toJunction="J3" end="540" vehsPerHour="205.15129081541326"/>
  <flow id="JF55055" begin="480" fromJunction="J3" toJunction="J0" end="540" vehsPerHour="367.2475575766298"/>
  <flow id="JF55056" begin="480" fromJunction="J0" toJunction="J7" end="540" vehsPerHour="73.61670745538315"/>
  <flow id="JF55057" begin="480" fromJunction="J0" toJunction="J6" end="540" vehsPerHour="96.25035416953583"/>
  <flow id="JF55058" begin="480" fromJunction="J0" toJunction="J5" end="540" vehsPerHour="116.89274667530997"/>
  <flow id="JF55059" begin="480" fromJunction="J0" toJunction="J4" end="540" vehsPerHour="116.69388183712466"/>
  <flow id="JF55060" begin="480" fromJunction="J3" toJunction="J7" end="540" vehsPerHour="31.99401875052383"/>
  <flow id="JF55061" begin="480" fromJunction="J3" toJunction="J6" end="540" vehsPerHour="80.9498317235674"/>
  <flow id="JF55062" begin="480" fromJunction="J3" toJunction="J5" end="540" vehsPerHour="50.38090637665025"/>
  <flow id="JF55063" begin="480" fromJunction="J3" toJunction="J4" end="540" vehsPerHour="93.51728027753875"/>
  <flow id="JF55064" begin="480" fromJunction="J7" toJunction="J6" end="540" vehsPerHour="32.899145701423215"/>
  <flow id="JF55065" begin="480" fromJunction="J7" toJunction="J5" end="540" vehsPerHour="0.5681914799426679"/>
  <flow id="JF55066" begin="480" fromJunction="J7" toJunction="J4" end="540" vehsPerHour="8.342872195820648"/>
  <flow id="JF55067" begin="480" fromJunction="J6" toJunction="J7" end="540" vehsPerHour="50.052394743243326"/>
  <flow id="JF55068" begin="480" fromJunction="J6" toJunction="J5" end="540" vehsPerHour="56.6954273948195"/>
  <flow id="JF55069" begin="480" fromJunction="J6" toJunction="J4" end="540" vehsPerHour="23.38436357590825"/>
  <flow id="JF55070" begin="480" fromJunction="J5" toJunction="J7" end="540" vehsPerHour="0.9053588536076093"/>
  <flow id="JF55071" begin="480" fromJunction="J5" toJunction="J6" end="540" vehsPerHour="52.54007891609862"/>
  <flow id="JF55072" begin="480" fromJunction="J5" toJunction="J4" end="540" vehsPerHour="63.13586339092173"/>
  <flow id="JF55073" begin="480" fromJunction="J4" toJunction="J7" end="540" vehsPerHour="48.91421505630329"/>
  <flow id="JF55074" begin="480" fromJunction="J4" toJunction="J6" end="540" vehsPerHour="67.65187770188855"/>
  <flow id="JF55075" begin="480" fromJunction="J4" toJunction="J5" end="540" vehsPerHour="5.676141508082069"/>
  <flow id="JF55076" begin="480" fromJunction="J7" toJunction="J0" end="540" vehsPerHour="25.095123945391908"/>
  <flow id="JF55077" begin="480" fromJunction="J7" toJunction="J3" end="540" vehsPerHour="36.802390898313064"/>
  <flow id="JF55078" begin="480" fromJunction="J6" toJunction="J0" end="540" vehsPerHour="27.449285742588874"/>
  <flow id="JF55079" begin="480" fromJunction="J6" toJunction="J3" end="540" vehsPerHour="38.34215989152199"/>
  <flow id="JF55080" begin="480" fromJunction="J5" toJunction="J0" end="540" vehsPerHour="22.457744881374293"/>
  <flow id="JF55081" begin="480" fromJunction="J5" toJunction="J3" end="540" vehsPerHour="16.44474376942752"/>
  <flow id="JF55082" begin="480" fromJunction="J4" toJunction="J0" end="540" vehsPerHour="17.434822684622716"/>
  <flow id="JF55083" begin="480" fromJunction="J4" toJunction="J3" end="540" vehsPerHour="42.04989860006468"/>
  <flow id="JF55084" begin="540" fromJunction="J0" toJunction="J3" end="600" vehsPerHour="274.20631846695267"/>
  <flow id="JF55085" begin="540" fromJunction="J3" toJunction="J0" end="600" vehsPerHour="301.2207681452345"/>
  <flow id="JF55086" begin="540" fromJunction="J0" toJunction="J7" end="600" vehsPerHour="39.546487915706415"/>
  <flow id="JF55087" begin="540" fromJunction="J0" toJunction="J6" end="600" vehsPerHour="10.04907936232195"/>
  <flow id="JF55088" begin="540" fromJunction="J0" toJunction="J5" end="600" vehsPerHour="62.21963844108969"/>
  <flow id="JF55089" begin="540" fromJunction="J0" toJunction="J4" end="600" vehsPerHour="14.792472472222624"/>
  <flow id="JF55090" begin="540" fromJunction="J3" toJunction="J7" end="600" vehsPerHour="23.273693055453666"/>
  <flow id="JF55091" begin="540" fromJunction="J3" toJunction="J6" end="600" vehsPerHour="5.171088321553786"/>
  <flow id="JF55092" begin="540" fromJunction="J3" toJunction="J5" end="600" vehsPerHour="3.7408806567672985"/>
  <flow id="JF55093" begin="540" fromJunction="J3" toJunction="J4" end="600" vehsPerHour="80.86326220793272"/>
  <flow id="JF55094" begin="600" fromJunction="J0" toJunction="J3" end="660" vehsPerHour="379.22399750059986"/>
  <flow id="JF55095" begin="600" fromJunction="J3" toJunction="J0" end="660" vehsPerHour="65.92629869651564"/>
  <flow id="JF55096" begin="600" fromJunction="J0" toJunction="J7" end="660" vehsPerHour="42.524141009513386"/>
  <flow id="JF55097" begin="600" fromJunction="J0" toJunction="J6" end="660" vehsPerHour="99.76749934233311"/>
  <flow id="JF55098" begin="600" fromJunction="J0" toJunction="J5" end="660" vehsPerHour="99.62258531836476"/>
  <flow id="JF55099" begin="600" fromJunction="J0" toJunction="J4" end="660" vehsPerHour="27.43782732092169"/>
  <flow id="JF55100" begin="600" fromJunction="J3" toJunction="J7" end="660" vehsPerHour="22.892087165301113"/>
  <flow id="JF55101" begin="600" fromJunction="J3" toJunction="J6" end="660" vehsPerHour="86.78140946426913"/>
  <flow id="JF55102" begin="600" fromJunction="J3" toJunction="J5" end="660" vehsPerHour="25.791864280312463"/>
  <flow id="JF55103" begin="600" fromJunction="J3" toJunction="J4" end="660" vehsPerHour="62.65460900961927"/>
  <flow id="JF55104" begin="600" fromJunction="J7" toJunction="J6" end="660" vehsPerHour="60.15492783855641"/>
  <flow id="JF55105" begin="600" fromJunction="J7" toJunction="J5" end="660" vehsPerHour="52.13154952797155"/>
  <flow id="JF55106" begin="600" fromJunction="J7" toJunction="J4" end="660" vehsPerHour="7.073742730747664"/>
  <flow id="JF55107" begin="600" fromJunction="J6" toJunction="J7" end="660" vehsPerHour="7.450318100953775"/>
  <flow id="JF55108" begin="600" fromJunction="J6" toJunction="J5" end="660" vehsPerHour="27.127688440865263"/>
  <flow id="JF55109" begin="600" fromJunction="J6" toJunction="J4" end="660" vehsPerHour="17.665876816541253"/>
  <flow id="JF55110" begin="600" fromJunction="J5" toJunction="J7" end="660" vehsPerHour="66.11313398463207"/>
  <flow id="JF55111" begin="600" fromJunction="J5" toJunction="J6" end="660" vehsPerHour="32.894763708098296"/>
  <flow id="JF55112" begin="600" fromJunction="J5" toJunction="J4" end="660" vehsPerHour="41.823666059840264"/>
  <flow id="JF55113" begin="600" fromJunction="J4" toJunction="J7" end="660" vehsPerHour="6.3421237601039815"/>
  <flow id="JF55114" begin="600" fromJunction="J4" toJunction="J6" end="660" vehsPerHour="7.002333499765905"/>
  <flow id="JF55115" begin="600" fromJunction="J4" toJunction="J5" end="660" vehsPerHour="62.11958202832319"/>
  <flow id="JF55116" begin="600" fromJunction="J7" toJunction="J0" end="660" vehsPerHour="36.14945631089141"/>
  <flow id="JF55117" begin="600" fromJunction="J7" toJunction="J3" end="660" vehsPerHour="18.366241385774604"/>
  <flow id="JF55118" begin="600" fromJunction="J6" toJunction="J0" end="660" vehsPerHour="55.73483090819012"/>
  <flow id="JF55119" begin="600" fromJunction="J6" toJunction="J3" end="660" vehsPerHour="24.113267000072558"/>
  <flow id="JF55120" begin="600" fromJunction="J5" toJunction="J0" end="660" vehsPerHour="66.68444691201246"/>
  <flow id="JF55121" begin="600" fromJunction="J5" toJunction="J3" end="660" vehsPerHour="60.53838311708534"/>
  <flow id="JF55122" begin="600" fromJunction="J4" toJunction="J0" end="660" vehsPerHour="63.70095777657591"/>
  <flow id="JF55123" begin="600" fromJunction="J4" toJunction="J3" end="660" vehsPerHour="43.0331735827326"/>
  <flow id="JF55124" begin="660" fromJunction="J0" toJunction="J3" end="720" vehsPerHour="413.9553973649859"/>
  <flow id="JF55125" begin="660" fromJunction="J3" toJunction="J0" end="720" vehsPerHour="350.87203487253646"/>
  <flow id="JF55126" begin="660" fromJunction="J0" toJunction="J7" end="720" vehsPerHour="19.602801842631813"/>
  <flow id="JF55127" begin="660" fromJunction="J0" toJunction="J6" end="720" vehsPerHour="60.999753918654115"/>
  <flow id="JF55128" begin="660" fromJunction="J0" toJunction="J5" end="720" vehsPerHour="108.17367298408026"/>
  <flow id="JF55129" begin="660" fromJunction="J0" toJunction="J4" end="720" vehsPerHour="56.189982815598896"/>
  <flow id="JF55130" begin="660" fromJunction="J3" toJunction="J7" end="720" vehsPerHour="80.83336284902359"/>
  <flow id="JF55131" begin="660" fromJunction="J3" toJunction="J6" end="720" vehsPerHour="38.56394312761079"/>
  <flow id="JF55132" begin="660" fromJunction="J3" toJunction="J5" end="720" vehsPerHour="125.43512559488481"/>
  <flow id="JF55133" begin="660" fromJunction="J3" toJunction="J4" end="720" vehsPerHour="32.85498766721963"/>
  <flow id="JF55134" begin="660" fromJunction="J7" toJunction="J6" end="720" vehsPerHour="25.84264656545761"/>
  <flow id="JF55135" begin="660" fromJunction="J7" toJunction="J5" end="720" vehsPerHour="45.73538439496684"/>
  <flow id="JF55136" begin="660" fromJunction="J7" toJunction="J4" end="720" vehsPerHour="50.62249715713828"/>
  <flow id="JF55137" begin="660" fromJunction="J6" toJunction="J7" end="720" vehsPerHour="13.523711463549839"/>
  <flow id="JF55138" begin="660" fromJunction="J6" toJunction="J5" end="720" vehsPerHour="29.546413230970572"/>
  <flow id="JF55139" begin="660" fromJunction="J6" toJunction="J4" end="720" vehsPerHour="13.252905888192796"/>
  <flow id="JF55140" begin="660" fromJunction="J5" toJunction="J7" end="720" vehsPerHour="0.6181852331793509"/>
  <flow id="JF55141" begin="660" fromJunction="J5" toJunction="J6" end="720" vehsPerHour="12.606378363301841"/>