<?xml version="1.0" encoding="UTF-8"?>
<routes xmlns:xsi="http://www.w3.org/2001/XMLSchema-instance" xsi:noNamespaceSchemaLocation="http://sumo.dlr.de/xsd/routes_file.xsd">
  <flow id="JF42894" begin="0" fromJunction="J0" toJunction="J3" end="60" vehsPerHour="323.70844094710105"/>
  <flow id="JF42895" begin="0" fromJunction="J3" toJunction="J0" end="60" vehsPerHour="459.7479250260249"/>
  <flow id="JF42896" begin="0" fromJunction="J0" toJunction="J7" end="60" vehsPerHour="123.54420013234977"/>
  <flow id="JF42897" begin="0" fromJunction="J0" toJunction="J6" end="60" vehsPerHour="85.83866228025042"/>
  <flow id="JF42898" begin="0" fromJunction="J0" toJunction="J5" end="60" vehsPerHour="82.25656689708782"/>
  <flow id="JF42899" begin="0" fromJunction="J0" toJunction="J4" end="60" vehsPerHour="28.515728733821025"/>
  <flow id="JF42900" begin="0" fromJunction="J3" toJunction="J7" end="60" vehsPerHour="11.359290969232488"/>
  <flow id="JF42901" begin="0" fromJunction="J3" toJunction="J6" end="60" vehsPerHour="113.75876607671938"/>
  <flow id="JF42902" begin="0" fromJunction="J3" toJunction="J5" end="60" vehsPerHour="48.438154891637865"/>
  <flow id="JF42903" begin="0" fromJunction="J3" toJunction="J4" end="60" vehsPerHour="66.23999814145205"/>
  <flow id="JF42904" begin="0" fromJunction="J7" toJunction="J6" end="60" vehsPerHour="62.1517469736126"/>
  <flow id="JF42905" begin="0" fromJunction="J7" toJunction="J5" end="60" vehsPerHour="9.943479658502199"/>
  <flow id="JF42906" begin="0" fromJunction="J7" toJunction="J4" end="60" vehsPerHour="27.796013026558953"/>
  <flow id="JF42907" begin="0" fromJunction="J6" toJunction="J7" end="60" vehsPerHour="43.12692717702999"/>
  <flow id="JF42908" begin="0" fromJunction="J6" toJunction="J5" end="60" vehsPerHour="6.531400681428953"/>
  <flow id="JF42909" begin="0" fromJunction="J6" toJunction="J4" end="60" vehsPerHour="36.18416718622428"/>
  <flow id="JF42910" begin="0" fromJunction="J5" toJunction="J7" end="60" vehsPerHour="12.68998156597259"/>
  <flow id="JF42911" begin="0" fromJunction="J5" toJunction="J6" end="60" vehsPerHour="45.20917088774496"/>
  <flow id="JF42912" begin="0" fromJunction="J5" toJunction="J4" end="60" vehsPerHour="32.53794647044598"/>
  <flow id="JF42913" begin="0" fromJunction="J4" toJunction="J7" end="60" vehsPerHour="22.599733797070808"/>
  <flow id="JF42914" begin="0" fromJunction="J4" toJunction="J6" end="60" vehsPerHour="20.849026673590153"/>
  <flow id="JF42915" begin="0" fromJunction="J4" toJunction="J5" end="60" vehsPerHour="19.337401587893673"/>
  <flow id="JF42916" begin="0" fromJunction="J7" toJunction="J0" end="60" vehsPerHour="21.769258046441557"/>
  <flow id="JF42917" begin="0" fromJunction="J7" toJunction="J3" end="60" vehsPerHour="15.943098002948572"/>
  <flow id="JF42918" begin="0" fromJunction="J6" toJunction="J0" end="60" vehsPerHour="35.93809486064198"/>
  <flow id="JF42919" begin="0" fromJunction="J6" toJunction="J3" end="60" vehsPerHour="58.18287797095299"/>
  <flow id="JF42920" begin="0" fromJunction="J5" toJunction="J0" end="60" vehsPerHour="29.684234263896464"/>
  <flow id="JF42921" begin="0" fromJunction="J5" toJunction="J3" end="60" vehsPerHour="32.55824888367837"/>
  <flow id="JF42922" begin="0" fromJunction="J4" toJunction="J0" end="60" vehsPerHour="45.29829092649671"/>
  <flow id="JF42923" begin="0" fromJunction="J4" toJunction="J3" end="60" vehsPerHour="22.874011787221747"/>
  <flow id="JF42924" begin="60" fromJunction="J0" toJunction="J3" end="120" vehsPerHour="190.0167075856897"/>
  <flow id="JF42925" begin="60" fromJunction="J3" toJunction="J0" end="120" vehsPerHour="249.50788333036897"/>
  <flow id="JF42926" begin="60" fromJunction="J0" toJunction="J7" end="120" vehsPerHour="23.559195855801715"/>
  <flow id="JF42927" begin="60" fromJunction="J0" toJunction="J6" end="120" vehsPerHour="80.36094523633996"/>
  <flow id="JF42928" begin="60" fromJunction="J0" toJunction="J5" end="120" vehsPerHour="67.85461488198574"/>
  <flow id="JF42929" begin="60" fromJunction="J0" toJunction="J4" end="120" vehsPerHour="136.7007567417807"/>
  <flow id="JF42930" begin="60" fromJunction="J3" toJunction="J7" end="120" vehsPerHour="8.702514175712476"/>
  <flow id="JF42931" begin="60" fromJunction="J3" toJunction="J6" end="120" vehsPerHour="84.13209238587335"/>
  <flow id="JF42932" begin="60" fromJunction="J3" toJunction="J5" end="120" vehsPerHour="36.87353867819741"/>
  <flow id="JF42933" begin="60" fromJunction="J3" toJunction="J4" end="120" vehsPerHour="7.1449742089329025"/>
  <flow id="JF42934" begin="120" fromJunction="J0" toJunction="J3" end="180" vehsPerHour="515.1146570325282"/>
  <flow id="JF42935" begin="120" fromJunction="J3" toJunction="J0" end="180" vehsPerHour="148.72852363459"/>
  <flow id="JF42936" begin="120" fromJunction="J0" toJunction="J7" end="180" vehsPerHour="71.46384482985535"/>
  <flow id="JF42937" begin="120" fromJunction="J0" toJunction="J6" end="180" vehsPerHour="118.85913276418042"/>
  <flow id="JF42938" begin="120" fromJunction="J0" toJunction="J5" end="180" vehsPerHour="16.60937725266427"/>
  <flow id="JF42939" begin="120" fromJunction="J0" toJunction="J4" end="180" vehsPerHour="39.034982810714084"/>
  <flow id="JF42940" begin="120" fromJunction="J3" toJunction="J7" end="180" vehsPerHour="60.50561188363033"/>
  <flow id="JF42941" begin="120" fromJunction="J3" toJunction="J6" end="180" vehsPerHour="7.204031987114149"/>
  <flow id="JF42942" begin="120" fromJunction="J3" toJunction="J5" end="180" vehsPerHour="36.12462042376739"/>
  <flow id="JF42943" begin="120" fromJunction="J3" toJunction="J4" end="180" vehsPerHour="87.03037518401372"/>
  <flow id="JF42944" begin="120" fromJunction="J7" toJunction="J6" end="180" vehsPerHour="36.696955964650336"/>
  <flow id="JF42945" begin="120" fromJunction="J7" toJunction="J5" end="180" vehsPerHour="21.749361365407427"/>
  <flow id="JF42946" begin="120" fromJunction="J7" toJunction="J4" end="180" vehsPerHour="50.306100974980865"/>
  <flow id="JF42947" begin="120" fromJunction="J6" toJunction="J7" end="180" vehsPerHour="16.146708819254236"/>
  <flow id="JF42948" begin="120" fromJunction="J6" toJunction="J5" end="180" vehsPerHour="25.5022471879945"/>
  <flow id="JF42949" begin="120" fromJunction="J6" toJunction="J4" end="180" vehsPerHour="45.465352336589454"/>
  <flow id="JF42950" begin="120" fromJunction="J5" toJunction="J7" end="180" vehsPerHour="0.8169764575214423"/>
  <flow id="JF42951" begin="120" fromJunction="J5" toJunction="J6" end="180" vehsPerHour="50.78480719102206"/>
  <flow id="JF42952" begin="120" fromJunction="J5" toJunction="J4" end="180" vehsPerHour="5.6864930219813505"/>
  <flow id="JF42953" begin="120" fromJunction="J4" toJunction="J7" end="180" vehsPerHour="17.45507615387508"/>
  <flow id="JF42954" begin="120" fromJunction="J4" toJunction="J6" end="180" vehsPerHour="55.42425208411653"/>
  <flow id="JF42955" begin="120" fromJunction="J4" toJunction="J5" end="180" vehsPerHour="27.879955180076895"/>
  <flow id="JF42956" begin="120" fromJunction="J7" toJunction="J0" end="180" vehsPerHour="37.70841994550893"/>
  <flow id="JF42957" begin="120" fromJunction="J7" toJunction="J3" end="180" vehsPerHour="66.35165560303221"/>
  <flow id="JF42958" begin="120" fromJunction="J6" toJunction="J0" end="180" vehsPerHour="57.70765623593398"/>
  <flow id="JF42959" begin="120" fromJunction="J6" toJunction="J3" end="180" vehsPerHour="35.62050693540172"/>
  <flow id="JF42960" begin="120" fromJunction="J5" toJunction="J0" end="180" vehsPerHour="27.758813298867874"/>
  <flow id="JF42961" begin="120" fromJunction="J5" toJunction="J3" end="180" vehsPerHour="63.519053506656334"/>
  <flow id="JF42962" begin="120" fromJunction="J4" toJunction="J0" end="180" vehsPerHour="49.43768522628754"/>
  <flow id="JF42963" begin="120" fromJunction="J4" toJunction="J3" end="180" vehsPerHour="51.68801818676598"/>
  <flow id="JF42964" begin="180" fromJunction="J0" toJunction="J3" end="240" vehsPerHour="365.5901465080389"/>
  <flow id="JF42965" begin="180" fromJunction="J3" toJunction="J0" end="240" vehsPerHour="128.71259274923779"/>
  <flow id="JF42966" begin="180" fromJunction="J0" toJunction="J7" end="240" vehsPerHour="69.39032694587652"/>
  <flow id="JF42967" begin="180" fromJunction="J0" toJunction="J6" end="240" vehsPerHour="21.730534567973276"/>
  <flow id="JF42968" begin="180" fromJunction="J0" toJunction="J5" end="240" vehsPerHour="50.99158867490866"/>
  <flow id="JF42969" begin="180" fromJunction="J0" toJunction="J4" end="240" vehsPerHour="37.41588784100846"/>
  <flow id="JF42970" begin="180" fromJunction="J3" toJunction="J7" end="240" vehsPerHour="4.934003128684626"/>
  <flow id="JF42971" begin="180" fromJunction="J3" toJunction="J6" end="240" vehsPerHour="89.55400786567321"/>
  <flow id="JF42972" begin="180" fromJunction="J3" toJunction="J5" end="240" vehsPerHour="11.039732242864698"/>
  <flow id="JF42973" begin="180" fromJunction="J3" toJunction="J4" end="240" vehsPerHour="47.1475372577588"/>
  <flow id="JF42974" begin="180" fromJunction="J7" toJunction="J6" end="240" vehsPerHour="27.586863774810716"/>
  <flow id="JF42975" begin="180" fromJunction="J7" toJunction="J5" end="240" vehsPerHour="13.13847463167039"/>
  <flow id="JF42976" begin="180" fromJunction="J7" toJunction="J4" end="240" vehsPerHour="22.011447448801814"/>
  <flow id="JF42977" begin="180" fromJunction="J6" toJunction="J7" end="240" vehsPerHour="25.493325097049137"/>
  <flow id="JF42978" begin="180" fromJunction="J6" toJunction="J5" end="240" vehsPerHour="44.359388030151635"/>
  <flow id="JF42979" begin="180" fromJunction="J6" toJunction="J4" end="240" vehsPerHour="2.6267590152798177"/>
  <flow id="JF42980" begin="180" fromJunction="J5" toJunction="J7" end="240" vehsPerHour="64.46335959763539"/>
  <flow id="JF42981" begin="180" fromJunction="J5" toJunction="J6" end="240" vehsPerHour="1.1472027412895798"/>
  <flow id="JF42982" begin="180" fromJunction="J5" toJunction="J4" end="240" vehsPerHour="65.90650896913408"/>
  <flow id="JF42983" begin="180" fromJunction="J4" toJunction="J7" end="240" vehsPerHour="33.09514169788993"/>
  <flow id="JF42984" begin="180" fromJunction="J4" toJunction="J6" end="240" vehsPerHour="10.731305058089443"/>
  <flow id="JF42985" begin="180" fromJunction="J4" toJunction="J5" end="240" vehsPerHour="57.31954465769472"/>
  <flow id="JF42986" begin="180" fromJunction="J7" toJunction="J0" end="240" vehsPerHour="56.37077295496375"/>
  <flow id="JF42987" begin="180" fromJunction="J7" toJunction="J3" end="240" vehsPerHour="55.48092933903504"/>
  <flow id="JF42988" begin="180" fromJunction="J6" toJunction="J0" end="240" vehsPerHour="3.38996440219214"/>
  <flow id="JF42989" begin="180" fromJunction="J6" toJunction="J3" end="240" vehsPerHour="1.2412465320500885"/>
  <flow id="JF42990" begin="180" fromJunction="J5" toJunction="J0" end="240" vehsPerHour="30.58489372145554"/>
  <flow id="JF42991" begin="180" fromJunction="J5" toJunction="J3" end="240" vehsPerHour="37.09751930947988"/>
  <flow id="JF42992" begin="180" fromJunction="J4" toJunction="J0" end="240" vehsPerHour="27.75271725958055"/>
  <flow id="JF42993" begin="180" fromJunction="J4" toJunction="J3" end="240" vehsPerHour="5.660807969976127"/>
  <flow id="JF42994" begin="240" fromJunction="J0" toJunction="J3" end="300" vehsPerHour="488.41298144013433"/>
  <flow id="JF42995" begin="240" fromJunction="J3" toJunction="J0" end="300" vehsPerHour="103.4148246255955"/>
  <flow id="JF42996" begin="240" fromJunction="J0" toJunction="J7" end="300" vehsPerHour="29.902016081593647"/>
  <flow id="JF42997" begin="240" fromJunction="J0" toJunction="J6" end="300" vehsPerHour="94.79822019561942"/>
  <flow id="JF42998" begin="240" fromJunction="J0" toJunction="J5" end="300" vehsPerHour="75.58945017742462"/>
  <flow id="JF42999" begin="240" fromJunction="J0" toJunction="J4" end="300" vehsPerHour="95.55034896502669"/>
  <flow id="JF43000" begin="240" fromJunction="J3" toJunction="J7" end="300" vehsPerHour="56.82868711556768"/>
  <flow id="JF43001" begin="240" fromJunction="J3" toJunction="J6" end="300" vehsPerHour="133.81865097243923"/>
  <flow id="JF43002" begin="240" fromJunction="J3" toJunction="J5" end="300" vehsPerHour="83.01854530311459"/>
  <flow id="JF43003" begin="240" fromJunction="J3" toJunction="J4" end="300" vehsPerHour="22.99048678426737"/>
  <flow id="JF43004" begin="300" fromJunction="J0" toJunction="J3" end="360" vehsPerHour="126.76580849963757"/>
  <flow id="JF43005" begin="300" fromJunction="J3" toJunction="J0" end="360" vehsPerHour="342.85585319100846"/>
  <flow id="JF43006" begin="300" fromJunction="J0" toJunction="J7" end="360" vehsPerHour="24.45070007058672"/>
  <flow id="JF43007" begin="300" fromJunction="J0" toJunction="J6" end="360" vehsPerHour="131.7050940519649"/>
  <flow id="JF43008" begin="300" fromJunction="J0" toJunction="J5" end="360" vehsPerHour="18.561109250090304"/>
  <flow id="JF43009" begin="300" fromJunction="J0" toJunction="J4" end="360" vehsPerHour="9.574238719586178"/>
  <flow id="JF43010" begin="300" fromJunction="J3" toJunction="J7" end="360" vehsPerHour="99.77548807578387"/>
  <flow id="JF43011" begin="300" fromJunction="J3" toJunction="J6" end="360" vehsPerHour="79.78721494996833"/>
  <flow id="JF43012" begin="300" fromJunction="J3" toJunction="J5" end="360" vehsPerHour="118.51977060874759"/>
  <flow id="JF43013" begin="300" fromJunction="J3" toJunction="J4" end="360" vehsPerHour="120.71458020529259"/>
  <flow id="JF43014" begin="300" fromJunction="J7" toJunction="J6" end="360" vehsPerHour="45.47768165169969"/>
  <flow id="JF43015" begin="300" fromJunction="J7" toJunction="J5" end="360" vehsPerHour="49.82840462829556"/>
  <flow id="JF43016" begin="300" fromJunction="J7" toJunction="J4" end="360" vehsPerHour="21.911219791009145"/>
  <flow id="JF43017" begin="300" fromJunction="J6" toJunction="J7" end="360" vehsPerHour="32.80646045320913"/>
  <flow id="JF43018" begin="300" fromJunction="J6" toJunction="J5" end="360" vehsPerHour="56.40735280873442"/>
  <flow id="JF43019" begin="300" fromJunction="J6" toJunction="J4" end="360" vehsPerHour="9.175527007868167"/>
  <flow id="JF43020" begin="300" fromJunction="J5" toJunction="J7" end="360" vehsPerHour="62.74867338836004"/>
  <flow id="JF43021" begin="300" fromJunction="J5" toJunction="J6" end="360" vehsPerHour="66.76933915719964"/>
  <flow id="JF43022" begin="300" fromJunction="J5" toJunction="J4" end="360" vehsPerHour="51.31884449117916"/>
  <flow id="JF43023" begin="300" fromJunction="J4" toJunction="J7" end="360" vehsPerHour="53.86138922261102"/>
  <flow id="JF43024" begin="300" fromJunction="J4" toJunction="J6" end="360" vehsPerHour="38.65221442774768"/>
  <flow id="JF43025" begin="300" fromJunction="J4" toJunction="J5" end="360" vehsPerHour="27.595341913172323"/>
  <flow id="JF43026" begin="300" fromJunction="J7" toJunction="J0" end="360" vehsPerHour="33.56296365434106"/>
  <flow id="JF43027" begin="300" fromJunction="J7" toJunction="J3" end="360" vehsPerHour="59.05560729576243"/>
  <flow id="JF43028" begin="300" fromJunction="J6" toJunction="J0" end="360" vehsPerHour="68.14107774889906"/>
  <flow id="JF43029" begin="300" fromJunction="J6" toJunction="J3" end="360" vehsPerHour="20.60090809767784"/>
  <flow id="JF43030" begin="300" fromJunction="J5" toJunction="J0" end="360" vehsPerHour="25.517770036098458"/>
  <flow id="JF43031" begin="300" fromJunction="J5" toJunction="J3" end="360" vehsPerHour="33.260574074338315"/>
  <flow id="JF43032" begin="300" fromJunction="J4" toJunction="J0" end="360" vehsPerHour="3.3762510379590127"/>
  <flow id="JF43033" begin="300" fromJunction="J4" toJunction="J3" end="360" vehsPerHour="53.499508363963535"/>
  <flow id="JF43034" begin="360" fromJunction="J0" toJunction="J3" end="420" vehsPerHour="372.4194474118586"/>
  <flow id="JF43035" begin="360" fromJunction="J3" toJunction="J0" end="420" vehsPerHour="304.659147808356"/>
  <flow id="JF43036" begin="360" fromJunction="J0" toJunction="J7" end="420" vehsPerHour="129.5672271376786"/>
  <flow id="JF43037" begin="360" fromJunction="J0" toJunction="J6" end="420" vehsPerHour="84.13633374397727"/>
  <flow id="JF43038" begin="360" fromJunction="J0" toJunction="J5" end="420" vehsPerHour="118.74031744637112"/>
  <flow id="JF43039" begin="360" fromJunction="J0" toJunction="J4" end="420" vehsPerHour="98.20338868700208"/>
  <flow id="JF43040" begin="360" fromJunction="J3" toJunction="J7" end="420" vehsPerHour="63.52456404568405"/>
  <flow id="JF43041" begin="360" fromJunction="J3" toJunction="J6" end="420" vehsPerHour="108.71555073763862"/>
  <flow id="JF43042" begin="360" fromJunction="J3" toJunction="J5" end="420" vehsPerHour="115.08460500269192"/>
  <flow id="JF43043" begin="360" fromJunction="J3" toJunction="J4" end="420" vehsPerHour="104.77015812279168"/>
  <flow id="JF43044" begin="360" fromJunction="J7" toJunction="J6" end="420" vehsPerHour="11.084324216475803"/>
  <flow id="JF43045" begin="360" fromJunction="J7" toJunction="J5" end="420" vehsPerHour="0.8607292995641347"/>
  <flow id="JF43046" begin="360" fromJunction="J7" toJunction="J4" end="420" vehsPerHour="25.185640188478715"/>
  <flow id="JF43047" begin="360" fromJunction="J6" toJunction="J7" end="420" vehsPerHour="61.94680708630514"/>
  <flow id="JF43048" begin="360" fromJunction="J6" toJunction="J5" end="420" vehsPerHour="24.08579280984468"/>
  <flow id="JF43049" begin="360" fromJunction="J6" toJunction="J4" end="420" vehsPerHour="34.42353385601462"/>
  <flow id="JF43050" begin="360" fromJunction="J5" toJunction="J7" end="420" vehsPerHour="48.776781090823334"/>
  <flow id="JF43051" begin="360" fromJunction="J5" toJunction="J6" end="420" vehsPerHour="5.422249466745798"/>
  <flow id="JF43052" begin="360" fromJunction="J5" toJunction="J4" end="420" vehsPerHour="49.76269241717271"/>
  <flow id="JF43053" begin="360" fromJunction="J4" toJunction="J7" end="420" vehsPerHour="37.926335825783845"/>
  <flow id="JF43054" begin="360" fromJunction="J4" toJunction="J6" end="420" vehsPerHour="8.421724043643735"/>
  <flow id="JF43055" begin="360" fromJunction="J4" toJunction="J5" end="420" vehsPerHour="52.512998780400814"/>
  <flow id="JF43056" begin="360" fromJunction="J7" toJunction="J0" end="420" vehsPerHour="66.7787286971281"/>
  <flow id="JF43057" begin="360" fromJunction="J7" toJunction="J3" end="420" vehsPerHour="26.1068871068705"/>
  <flow id="JF43058" begin="360" fromJunction="J6" toJunction="J0" end="420" vehsPerHour="12.37277550607317"/>
  <flow id="JF43059" begin="360" fromJunction="J6" toJunction="J3" end="420" vehsPerHour="36.01957970047925"/>
  <flow id="JF43060" begin="360" fromJunction="J5" toJunction="J0" end="420" vehsPerHour="41.18193319660085"/>
  <flow id="JF43061" begin="360" fromJunction="J5" toJunction="J3" end="420" vehsPerHour="46.97450272257689"/>
  <flow id="JF43062" begin="360" fromJunction="J4" toJunction="J0" end="420" vehsPerHour="50.18401718366372"/>
  <flow id="JF43063" begin="360" fromJunction="J4" toJunction="J3" end="420" vehsPerHour="52.828273996097664"/>
  <flow id="JF43064" begin="420" fromJunction="J0" toJunction="J3" end="480" vehsPerHour="278.91867353316866"/>
  <flow id="JF43065" begin="420" fromJunction="J3" toJunction="J0" end="480" vehsPerHour="459.3648510018817"/>
  <flow id="JF43066" begin="420" fromJunction="J0" toJunction="J7" end="480" vehsPerHour="32.5891640841617"/>
  <flow id="JF43067" begin="420" fromJunction="J0" toJunction="J6" end="480" vehsPerHour="20.41898418333467"/>
  <flow id="JF43068" begin="420" fromJunction="J0" toJunction="J5" end="480" vehsPerHour="98.87559540349157"/>
  <flow id="JF43069" begin="420" fromJunction="J0" toJunction="J4" end="480" vehsPerHour="39.851830651234444"/>
  <flow id="JF43070" begin="420" fromJunction="J3" toJunction="J7" end="480" vehsPerHour="72.42308227545287"/>
  <flow id="JF43071" begin="420" fromJunction="J3" toJunction="J6" end="480" vehsPerHour="65.40737674496887"/>
  <flow id="JF43072" begin="420" fromJunction="J3" toJunction="J5" end="480" vehsPerHour="24.680617768296678"/>
  <flow id="JF43073" begin="420" fromJunction="J3" toJunction="J4" end="480" vehsPerHour="91.58150032534515"/>
  <flow id="JF43074" begin="480" fromJunction="J0" toJunction="J3" end="540" vehsPerHour="9.182092385288668"/>
  <flow id="JF43075" begin="480" fromJunction="J3" toJunction="J0" end="540" vehsPerHour="44.08783623824195"/>
  <flow id="JF43076" begin="480" fromJunction="J0" toJunction="J7" end="540" vehsPerHour="50.65644096217542"/>
  <flow id="JF43077" begin="480" fromJunction="J0" toJunction="J6" end="540" vehsPerHour="33.137630474467755"/>
  <flow id="JF43078" begin="480" fromJunction="J0" toJunction="J5" end="540" vehsPerHour="39.61602954589948"/>
  <flow id="JF43079" begin="480" fromJunction="J0" toJunction="J4" end="540" vehsPerHour="29.216188643877256"/>
  <flow id="JF43080" begin="480" fromJunction="J3" toJunction="J7" end="540" vehsPerHour="105.6452252336171"/>
  <flow id="JF43081" begin="480" fromJunction="J3" toJunction="J6" end="540" vehsPerHour="25.562843840474486"/>
  <flow id="JF43082" begin="480" fromJunction="J3" toJunction="J5" end="540" vehsPerHour="18.214633066968812"/>
  <flow id="JF43083" begin="480" fromJunction="J3" toJunction="J4" end="540" vehsPerHour="21.537442741710077"/>
  <flow id="JF43084" begin="480" fromJunction="J7" toJunction="J6" end="540" vehsPerHour="10.19008235285879"/>
  <flow id="JF43085" begin="480" fromJunction="J7" toJunction="J5" end="540" vehsPerHour="30.5534750396751"/>
  <flow id="JF43086" begin="480" fromJunction="J7" toJunction="J4" end="540" vehsPerHour="26.12989026253386"/>
  <flow id="JF43087" begin="480" fromJunction="J6" toJunction="J7" end="540" vehsPerHour="43.27447996676417"/>
  <flow id="JF43088" begin="480" fromJunction="J6" toJunction="J5" end="540" vehsPerHour="36.47828703039904"/>
  <flow id="JF43089" begin="480" fromJunction="J6" toJunction="J4" end="540" vehsPerHour="23.995336923585054"/>
  <flow id="JF43090" begin="480" fromJunction="J5" toJunction="J7" end="540" vehsPerHour="36.91511272317503"/>
  <flow id="JF43091" begin="480" fromJunction="J5" toJunction="J6" end="540" vehsPerHour="17.165296065569372"/>
  <flow id="JF43092" begin="480" fromJunction="J5" toJunction="J4" end="540" vehsPerHour="52.37669981614232"/>
  <flow id="JF43093" begin="480" fromJunction="J4" toJunction="J7" end="540" vehsPerHour="33.71500983581549"/>
  <flow id="JF43094" begin="480" fromJunction="J4" toJunction="J6" end="540" vehsPerHour="51.12193075240579"/>
  <flow id="JF43095" begin="480" fromJunction="J4" toJunction="J5" end="540" vehsPerHour="49.53888611777925"/>
  <flow id="JF43096" begin="480" fromJunction="J7" toJunction="J0" end="540" vehsPerHour="61.95816430331493"/>
  <flow id="JF43097" begin="480" fromJunction="J7" toJunction="J3" end="540" vehsPerHour="30.991438490686903"/>
  <flow id="JF43098" begin="480" fromJunction="J6" toJunction="J0" end="540" vehsPerHour="61.29984349452198"/>
  <flow id="JF43099" begin="480" fromJunction="J6" toJunction="J3" end="540" vehsPerHour="53.10991688289127"/>
  <flow id="JF43100" begin="480" fromJunction="J5" toJunction="J0" end="540" vehsPerHour="29.69539712056874"/>
  <flow id="JF43101" begin="480" fromJunction="J5" toJunction="J3" end="540" vehsPerHour="47.60396448640722"/>
  <flow id="JF43102" begin="480" fromJunction="J4" toJunction="J0" end="540" vehsPerHour="30.830229163531907"/>
  <flow id="JF43103" begin="480" fromJunction="J4" toJunction="J3" end="540" vehsPerHour="29.164874302086425"/>
  <flow id="JF43104" begin="540" fromJunction="J0" toJunction="J3" end="600" vehsPerHour="324.05970684533855"/>
  <flow id="JF43105" begin="540" fromJunction="J3" toJunction="J0" end="600" vehsPerHour="322.89378864144254"/>
  <flow id="JF43106" begin="540" fromJunction="J0" toJunction="J7" end="600" vehsPerHour="102.67076404444437"/>
  <flow id="JF43107" begin="540" fromJunction="J0" toJunction="J6" end="600" vehsPerHour="120.13621371347786"/>
  <flow id="JF43108" begin="540" fromJunction="J0" toJunction="J5" end="600" vehsPerHour="54.637147669514626"/>
  <flow id="JF43109" begin="540" fromJunction="J0" toJunction="J4" end="600" vehsPerHour="94.13413816322868"/>
  <flow id="JF43110" begin="540" fromJunction="J3" toJunction="J7" end="600" vehsPerHour="91.26539269565744"/>
  <flow id="JF43111" begin="540" fromJunction="J3" toJunction="J6" end="600" vehsPerHour="118.85154632137618"/>
  <flow id="JF43112" begin="540" fromJunction="J3" toJunction="J5" end="600" vehsPerHour="42.86478280602215"/>
  <flow id="JF43113" begin="540" fromJunction="J3" toJunction="J4" end="600" vehsPerHour="124.3420166796599"/>
  <flow id="JF43114" begin="600" fromJunction="J0" toJunction="J3" end="660" vehsPerHour="96.82194141106031"/>
  <flow id="JF43115" begin="600" fromJunction="J3" toJunction="J0" end="660" vehsPerHour="156.2205649220756"/>
  <flow id="JF43116" begin="600" fromJunction="J0" toJunction="J7" end="660" vehsPerHour="29.123293180046254"/>
  <flow id="JF43117" begin="600" fromJunction="J0" toJunction="J6" end="660" vehsPerHour="52.06852503343517"/>
  <flow id="JF43118" begin="600" fromJunction="J0" toJunction="J5" end="660" vehsPerHour="19.107554961777154"/>
  <flow id="JF43119" begin="600" fromJunction="J0" toJunction="J4" end="660" vehsPerHour="109.20272372659566"/>
  <flow id="JF43120" begin="600" fromJunction="J3" toJunction="J7" end="660" vehsPerHour="21.713481521849477"/>
  <flow id="JF43121" begin="600" fromJunction="J3" toJunction="J6" end="660" vehsPerHour="16.036615921152165"/>
  <flow id="JF43122" begin="600" fromJunction="J3" toJunction="J5" end="660" vehsPerHour="23.828861499797295"/>
  <flow id="JF43123" begin="600" fromJunction="J3" toJunction="J4" end="660" vehsPerHour="51.72897343048214"/>
  <flow id="JF43124" begin="600" fromJunction="J7" toJunction="J6" end="660" vehsPerHour="64.4782798277018"/>
  <flow id="JF43125" begin="600" fromJunction="J7" toJunction="J5" end="660" vehsPerHour="57.79487145143842"/>
  <flow id="JF43126" begin="600" fromJunction="J7" toJunction="J4" end="660" vehsPerHour="17.697760198989062"/>
  <flow id="JF43127" begin="600" fromJunction="J6" toJunction="J7" end="660" vehsPerHour="39.075744798375474"/>
  <flow id="JF43128" begin="600" fromJunction="J6" toJunction="J5" end="660" vehsPerHour="34.301466900428714"/>
  <flow id="JF43129" begin="600" fromJunction="J6" toJunction="J4" end="660" vehsPerHour="8.993544042085148"/>
  <flow id="JF43130" begin="600" fromJunction="J5" toJunction="J7" end="660" vehsPerHour="35.51092052412304"/>
  <flow id="JF43131" begin="600" fromJunction="J5" toJunction="J6" end="660" vehsPerHour="37.46035036407183"/>
  <flow id="JF43132" begin="600" fromJunction="J5" toJunction="J4" end="660" vehsPerHour="55.11229766280385"/>
  <flow id="JF43133" begin="600" fromJunction="J4" toJunction="J7" end="660" vehsPerHour="44.771940160873264"/>
  <flow id="JF43134" begin="600" fromJunction="J4" toJunction="J6" end="660" vehsPerHour="55.695497248016345"/>
  <flow id="JF43135" begin="600" fromJunction="J4" toJunction="J5" end="660" vehsPerHour="39.38922534350958"/>
  <flow id="JF43136" begin="600" fromJunction="J7" toJunction="J0" end="660" vehsPerHour="6.859403671573153"/>
  <flow id="JF43137" begin="600" fromJunction="J7" toJunction="J3" end="660" vehsPerHour="15.377563488635072"/>
  <flow id="JF43138" begin="600" fromJunction="J6" toJunction="J0" end="660" vehsPerHour="39.621567544488734"/>
  <flow id="JF43139" begin="600" fromJunction="J6" toJunction="J3" end="660" vehsPerHour="63.70325524659013"/>
  <flow id="JF43140" begin="600" fromJunction="J5" toJunction="J0" end="660" vehsPerHour="62.41960092236324"/>
  <flow id="JF43141" begin="600" fromJunction="J5" toJunction="J3" end="660" vehsPerHour="61.763899540689586"/>
  <flow id="JF43142" begin="600" fromJunction="J4" toJunction="J0" end="660" vehsPerHour="2.729596011251068"/>
  <flow id="JF43143" begin="600" fromJunction="J4" toJunction="J3" end="660" vehsPerHour="23.555405410311227"/>
  <flow id="JF43144" begin="660" fromJunction="J0" toJunction="J3" end="720" vehsPerHour="188.61393753575408"/>
  <flow id="JF43145" begin="660" fromJunction="J3" toJunction="J0" end="720" vehsPerHour="321.043667250075"/>
  <flow id="JF43146" begin="660" fromJunction="J0" toJunction="J7" end="720" vehsPerHour="68.6237739555481"/>
  <flow id="JF43147" begin="660" fromJunction="J0" toJunction="J6" end="720" vehsPerHour="26.76295407599672"/>
  <flow id="JF43148" begin="660" fromJunction="J0" toJunction="J5" end="720" vehsPerHour="44.055168019637684"/>
  <flow id="JF43149" begin="660" fromJunction="J0" toJunction="J4" end="720" vehsPerHour="54.4533013264778"/>
  <flow id="JF43150" begin="660" fromJunction="J3" toJunction="J7" end="720" vehsPerHour="125.3607251194165"/>
  <flow id="JF43151" begin="660" fromJunction="J3" toJunction="J6" end="720" vehsPerHour="67.667201786574"/>
  <flow id="JF43152" begin="660" fromJunction="J3" toJunction="J5" end="720" vehsPerHour="15.69359175569063"/>
  <flow id="JF43153" begin="660" fromJunction="J3" toJunction="J4" end="720" vehsPerHour="80.71007055502815"/>
  <flow id="JF43154" begin="660" fromJunction="J7" toJunction="J6" end="720" vehsPerHour="37.1953291043676"/>
  <flow id="JF43155" begin="660" fromJunction="J7" toJunction="J5" end="720" vehsPerHour="0.17848291803948768"/>
  <flow id="JF43156" begin="660" fromJunction="J7" toJunction="J4" end="720" vehsPerHour="40.98676856378317"/>
  <flow id="JF43157" begin="660" fromJunction="J6" toJunction="J7" end="720" vehsPerHour="62.32381019416787"/>
  <flow id="JF43158" begin="660" fromJunction="J6" toJunction="J5" end="720" vehsPerHour="49.99700433156717"/>
  <flow id="JF43159" begin="660" fromJunction="J6" toJunction="J4" end="720" vehsPerHour="52.50714276351379"/>
  <flow id="JF43160" begin="660" fromJunction="J5" toJunction="J7" end="720" vehsPerHour="11.303935230736345"/>
  <flow id="JF43161" begin="660" fromJunction="J5" toJunction="J6" end="720" vehsPerHour="1.0293255791179212"/>