<?xml version="1.0" encoding="UTF-8"?>
<routes xmlns:xsi="http://www.w3.org/2001/XMLSchema-instance" xsi:noNamespaceSchemaLocation="http://sumo.dlr.de/xsd/routes_file.xsd">
  <flow id="JF38934" begin="0" fromJunction="J0" toJunction="J3" end="60" vehsPerHour="207.2841415857844"/>
  <flow id="JF38935" begin="0" fromJunction="J3" toJunction="J0" end="60" vehsPerHour="526.7734625810508"/>
  <flow id="JF38936" begin="0" fromJunction="J0" toJunction="J7" end="60" vehsPerHour="21.67499582310182"/>
  <flow id="JF38937" begin="0" fromJunction="J0" toJunction="J6" end="60" vehsPerHour="78.42828715777668"/>
  <flow id="JF38938" begin="0" fromJunction="J0" toJunction="J5" end="60" vehsPerHour="47.17910361143924"/>
  <flow id="JF38939" begin="0" fromJunction="J0" toJunction="J4" end="60" vehsPerHour="37.755310186588886"/>
  <flow id="JF38940" begin="0" fromJunction="J3" toJunction="J7" end="60" vehsPerHour="130.9043697356941"/>
  <flow id="JF38941" begin="0" fromJunction="J3" toJunction="J6" end="60" vehsPerHour="30.505729417301417"/>
  <flow id="JF38942" begin="0" fromJunction="J3" toJunction="J5" end="60" vehsPerHour="66.52487073545313"/>
  <flow id="JF38943" begin="0" fromJunction="J3" toJunction="J4" end="60" vehsPerHour="63.063765441674406"/>
  <flow id="JF38944" begin="0" fromJunction="J7" toJunction="J6" end="60" vehsPerHour="29.23729526944975"/>
  <flow id="JF38945" begin="0" fromJunction="J7" toJunction="J5" end="60" vehsPerHour="11.9950391953705"/>
  <flow id="JF38946" begin="0" fromJunction="J7" toJunction="J4" end="60" vehsPerHour="4.114902577181795"/>
  <flow id="JF38947" begin="0" fromJunction="J6" toJunction="J7" end="60" vehsPerHour="49.29633714185545"/>
  <flow id="JF38948" begin="0" fromJunction="J6" toJunction="J5" end="60" vehsPerHour="41.621114540482715"/>
  <flow id="JF38949" begin="0" fromJunction="J6" toJunction="J4" end="60" vehsPerHour="21.33251556344183"/>
  <flow id="JF38950" begin="0" fromJunction="J5" toJunction="J7" end="60" vehsPerHour="32.39739240271321"/>
  <flow id="JF38951" begin="0" fromJunction="J5" toJunction="J6" end="60" vehsPerHour="64.38910632424007"/>
  <flow id="JF38952" begin="0" fromJunction="J5" toJunction="J4" end="60" vehsPerHour="4.008531952401722"/>
  <flow id="JF38953" begin="0" fromJunction="J4" toJunction="J7" end="60" vehsPerHour="28.641823258874986"/>
  <flow id="JF38954" begin="0" fromJunction="J4" toJunction="J6" end="60" vehsPerHour="67.44808448153466"/>
  <flow id="JF38955" begin="0" fromJunction="J4" toJunction="J5" end="60" vehsPerHour="39.891777083590256"/>
  <flow id="JF38956" begin="0" fromJunction="J7" toJunction="J0" end="60" vehsPerHour="32.63125939048357"/>
  <flow id="JF38957" begin="0" fromJunction="J7" toJunction="J3" end="60" vehsPerHour="37.63737645829389"/>
  <flow id="JF38958" begin="0" fromJunction="J6" toJunction="J0" end="60" vehsPerHour="40.63417948546315"/>
  <flow id="JF38959" begin="0" fromJunction="J6" toJunction="J3" end="60" vehsPerHour="16.892489696074556"/>
  <flow id="JF38960" begin="0" fromJunction="J5" toJunction="J0" end="60" vehsPerHour="12.638271060562138"/>
  <flow id="JF38961" begin="0" fromJunction="J5" toJunction="J3" end="60" vehsPerHour="12.687829806990319"/>
  <flow id="JF38962" begin="0" fromJunction="J4" toJunction="J0" end="60" vehsPerHour="16.910867794590246"/>
  <flow id="JF38963" begin="0" fromJunction="J4" toJunction="J3" end="60" vehsPerHour="54.1326851780394"/>
  <flow id="JF38964" begin="60" fromJunction="J0" toJunction="J3" end="120" vehsPerHour="4.191602106782293"/>
  <flow id="JF38965" begin="60" fromJunction="J3" toJunction="J0" end="120" vehsPerHour="443.75477541331134"/>
  <flow id="JF38966" begin="60" fromJunction="J0" toJunction="J7" end="120" vehsPerHour="67.67900526102324"/>
  <flow id="JF38967" begin="60" fromJunction="J0" toJunction="J6" end="120" vehsPerHour="8.387359612270135"/>
  <flow id="JF38968" begin="60" fromJunction="J0" toJunction="J5" end="120" vehsPerHour="102.7141620295606"/>
  <flow id="JF38969" begin="60" fromJunction="J0" toJunction="J4" end="120" vehsPerHour="18.950420512073315"/>
  <flow id="JF38970" begin="60" fromJunction="J3" toJunction="J7" end="120" vehsPerHour="54.07652289670631"/>
  <flow id="JF38971" begin="60" fromJunction="J3" toJunction="J6" end="120" vehsPerHour="12.789479727936241"/>
  <flow id="JF38972" begin="60" fromJunction="J3" toJunction="J5" end="120" vehsPerHour="92.71584822303737"/>
  <flow id="JF38973" begin="60" fromJunction="J3" toJunction="J4" end="120" vehsPerHour="76.32494565987155"/>
  <flow id="JF38974" begin="60" fromJunction="J7" toJunction="J6" end="120" vehsPerHour="15.311019747801437"/>
  <flow id="JF38975" begin="60" fromJunction="J7" toJunction="J5" end="120" vehsPerHour="68.45768035042734"/>
  <flow id="JF38976" begin="60" fromJunction="J7" toJunction="J4" end="120" vehsPerHour="53.449470383870114"/>
  <flow id="JF38977" begin="60" fromJunction="J6" toJunction="J7" end="120" vehsPerHour="42.29202427838474"/>
  <flow id="JF38978" begin="60" fromJunction="J6" toJunction="J5" end="120" vehsPerHour="53.004886699841656"/>
  <flow id="JF38979" begin="60" fromJunction="J6" toJunction="J4" end="120" vehsPerHour="66.94873597426641"/>
  <flow id="JF38980" begin="60" fromJunction="J5" toJunction="J7" end="120" vehsPerHour="2.6835062019677536"/>
  <flow id="JF38981" begin="60" fromJunction="J5" toJunction="J6" end="120" vehsPerHour="9.487589422601516"/>
  <flow id="JF38982" begin="60" fromJunction="J5" toJunction="J4" end="120" vehsPerHour="18.241428179627242"/>
  <flow id="JF38983" begin="60" fromJunction="J4" toJunction="J7" end="120" vehsPerHour="49.25026183539346"/>
  <flow id="JF38984" begin="60" fromJunction="J4" toJunction="J6" end="120" vehsPerHour="55.98668890609798"/>
  <flow id="JF38985" begin="60" fromJunction="J4" toJunction="J5" end="120" vehsPerHour="31.804572582319334"/>
  <flow id="JF38986" begin="60" fromJunction="J7" toJunction="J0" end="120" vehsPerHour="19.250133957734676"/>
  <flow id="JF38987" begin="60" fromJunction="J7" toJunction="J3" end="120" vehsPerHour="47.45580916486299"/>
  <flow id="JF38988" begin="60" fromJunction="J6" toJunction="J0" end="120" vehsPerHour="68.66193233355293"/>
  <flow id="JF38989" begin="60" fromJunction="J6" toJunction="J3" end="120" vehsPerHour="26.552469150576975"/>
  <flow id="JF38990" begin="60" fromJunction="J5" toJunction="J0" end="120" vehsPerHour="11.902658415541142"/>
  <flow id="JF38991" begin="60" fromJunction="J5" toJunction="J3" end="120" vehsPerHour="4.54103758197103"/>
  <flow id="JF38992" begin="60" fromJunction="J4" toJunction="J0" end="120" vehsPerHour="36.50495705701183"/>
  <flow id="JF38993" begin="60" fromJunction="J4" toJunction="J3" end="120" vehsPerHour="7.566424992157752"/>
  <flow id="JF38994" begin="120" fromJunction="J0" toJunction="J3" end="180" vehsPerHour="318.93518038309645"/>
  <flow id="JF38995" begin="120" fromJunction="J3" toJunction="J0" end="180" vehsPerHour="118.17497232787206"/>
  <flow id="JF38996" begin="120" fromJunction="J0" toJunction="J7" end="180" vehsPerHour="21.145529183097164"/>
  <flow id="JF38997" begin="120" fromJunction="J0" toJunction="J6" end="180" vehsPerHour="88.45845327228491"/>
  <flow id="JF38998" begin="120" fromJunction="J0" toJunction="J5" end="180" vehsPerHour="10.864831518081896"/>
  <flow id="JF38999" begin="120" fromJunction="J0" toJunction="J4" end="180" vehsPerHour="100.67300832549705"/>
  <flow id="JF39000" begin="120" fromJunction="J3" toJunction="J7" end="180" vehsPerHour="79.59775334185655"/>
  <flow id="JF39001" begin="120" fromJunction="J3" toJunction="J6" end="180" vehsPerHour="63.99089452699394"/>
  <flow id="JF39002" begin="120" fromJunction="J3" toJunction="J5" end="180" vehsPerHour="120.36152629482373"/>
  <flow id="JF39003" begin="120" fromJunction="J3" toJunction="J4" end="180" vehsPerHour="42.63676431476795"/>
  <flow id="JF39004" begin="120" fromJunction="J7" toJunction="J6" end="180" vehsPerHour="66.74342082973017"/>
  <flow id="JF39005" begin="120" fromJunction="J7" toJunction="J5" end="180" vehsPerHour="52.013646286538595"/>
  <flow id="JF39006" begin="120" fromJunction="J7" toJunction="J4" end="180" vehsPerHour="37.21468425480907"/>
  <flow id="JF39007" begin="120" fromJunction="J6" toJunction="J7" end="180" vehsPerHour="18.773730325429224"/>
  <flow id="JF39008" begin="120" fromJunction="J6" toJunction="J5" end="180" vehsPerHour="35.78454461285083"/>
  <flow id="JF39009" begin="120" fromJunction="J6" toJunction="J4" end="180" vehsPerHour="42.79938965870368"/>
  <flow id="JF39010" begin="120" fromJunction="J5" toJunction="J7" end="180" vehsPerHour="67.76855051178887"/>
  <flow id="JF39011" begin="120" fromJunction="J5" toJunction="J6" end="180" vehsPerHour="9.71106141886215"/>
  <flow id="JF39012" begin="120" fromJunction="J5" toJunction="J4" end="180" vehsPerHour="36.235358763321216"/>
  <flow id="JF39013" begin="120" fromJunction="J4" toJunction="J7" end="180" vehsPerHour="3.380288334637053"/>
  <flow id="JF39014" begin="120" fromJunction="J4" toJunction="J6" end="180" vehsPerHour="38.94686070203366"/>
  <flow id="JF39015" begin="120" fromJunction="J4" toJunction="J5" end="180" vehsPerHour="49.052758596671"/>
  <flow id="JF39016" begin="120" fromJunction="J7" toJunction="J0" end="180" vehsPerHour="43.27174202667047"/>
  <flow id="JF39017" begin="120" fromJunction="J7" toJunction="J3" end="180" vehsPerHour="58.25765939903438"/>
  <flow id="JF39018" begin="120" fromJunction="J6" toJunction="J0" end="180" vehsPerHour="39.85919201398036"/>
  <flow id="JF39019" begin="120" fromJunction="J6" toJunction="J3" end="180" vehsPerHour="6.254252566844575"/>
  <flow id="JF39020" begin="120" fromJunction="J5" toJunction="J0" end="180" vehsPerHour="43.63208857134953"/>
  <flow id="JF39021" begin="120" fromJunction="J5" toJunction="J3" end="180" vehsPerHour="48.64557554318489"/>
  <flow id="JF39022" begin="120" fromJunction="J4" toJunction="J0" end="180" vehsPerHour="66.86807254253345"/>
  <flow id="JF39023" begin="120" fromJunction="J4" toJunction="J3" end="180" vehsPerHour="43.05913616742357"/>
  <flow id="JF39024" begin="180" fromJunction="J0" toJunction="J3" end="240" vehsPerHour="69.03585335458847"/>
  <flow id="JF39025" begin="180" fromJunction="J3" toJunction="J0" end="240" vehsPerHour="80.40012509920656"/>
  <flow id="JF39026" begin="180" fromJunction="J0" toJunction="J7" end="240" vehsPerHour="62.61839225578677"/>
  <flow id="JF39027" begin="180" fromJunction="J0" toJunction="J6" end="240" vehsPerHour="27.339835033571976"/>
  <flow id="JF39028" begin="180" fromJunction="J0" toJunction="J5" end="240" vehsPerHour="5.203983445025377"/>
  <flow id="JF39029" begin="180" fromJunction="J0" toJunction="J4" end="240" vehsPerHour="40.280478725867845"/>
  <flow id="JF39030" begin="180" fromJunction="J3" toJunction="J7" end="240" vehsPerHour="104.99529443825365"/>
  <flow id="JF39031" begin="180" fromJunction="J3" toJunction="J6" end="240" vehsPerHour="109.24811761637096"/>
  <flow id="JF39032" begin="180" fromJunction="J3" toJunction="J5" end="240" vehsPerHour="110.3335371668738"/>
  <flow id="JF39033" begin="180" fromJunction="J3" toJunction="J4" end="240" vehsPerHour="36.60685377913816"/>
  <flow id="JF39034" begin="180" fromJunction="J7" toJunction="J6" end="240" vehsPerHour="55.89898357433937"/>
  <flow id="JF39035" begin="180" fromJunction="J7" toJunction="J5" end="240" vehsPerHour="21.9663171223787"/>
  <flow id="JF39036" begin="180" fromJunction="J7" toJunction="J4" end="240" vehsPerHour="33.302216581132996"/>
  <flow id="JF39037" begin="180" fromJunction="J6" toJunction="J7" end="240" vehsPerHour="43.50631806077501"/>
  <flow id="JF39038" begin="180" fromJunction="J6" toJunction="J5" end="240" vehsPerHour="8.186159163153127"/>
  <flow id="JF39039" begin="180" fromJunction="J6" toJunction="J4" end="240" vehsPerHour="9.193959083096347"/>
  <flow id="JF39040" begin="180" fromJunction="J5" toJunction="J7" end="240" vehsPerHour="23.216007521031454"/>
  <flow id="JF39041" begin="180" fromJunction="J5" toJunction="J6" end="240" vehsPerHour="65.1515713344452"/>
  <flow id="JF39042" begin="180" fromJunction="J5" toJunction="J4" end="240" vehsPerHour="23.975745234387375"/>
  <flow id="JF39043" begin="180" fromJunction="J4" toJunction="J7" end="240" vehsPerHour="27.125139376146464"/>
  <flow id="JF39044" begin="180" fromJunction="J4" toJunction="J6" end="240" vehsPerHour="17.03954735522268"/>
  <flow id="JF39045" begin="180" fromJunction="J4" toJunction="J5" end="240" vehsPerHour="65.10985889275106"/>
  <flow id="JF39046" begin="180" fromJunction="J7" toJunction="J0" end="240" vehsPerHour="33.60370684514922"/>
  <flow id="JF39047" begin="180" fromJunction="J7" toJunction="J3" end="240" vehsPerHour="0.1445055295279495"/>
  <flow id="JF39048" begin="180" fromJunction="J6" toJunction="J0" end="240" vehsPerHour="5.08175919445423"/>
  <flow id="JF39049" begin="180" fromJunction="J6" toJunction="J3" end="240" vehsPerHour="61.5668605157003"/>
  <flow id="JF39050" begin="180" fromJunction="J5" toJunction="J0" end="240" vehsPerHour="33.188357539068065"/>
  <flow id="JF39051" begin="180" fromJunction="J5" toJunction="J3" end="240" vehsPerHour="46.973577084865795"/>
  <flow id="JF39052" begin="180" fromJunction="J4" toJunction="J0" end="240" vehsPerHour="63.50507081285111"/>
  <flow id="JF39053" begin="180" fromJunction="J4" toJunction="J3" end="240" vehsPerHour="46.84274358453085"/>
  <flow id="JF39054" begin="240" fromJunction="J0" toJunction="J3" end="300" vehsPerHour="430.0342924867914"/>
  <flow id="JF39055" begin="240" fromJunction="J3" toJunction="J0" end="300" vehsPerHour="429.9752352453527"/>
  <flow id="JF39056" begin="240" fromJunction="J0" toJunction="J7" end="300" vehsPerHour="124.39982488769249"/>
  <flow id="JF39057" begin="240" fromJunction="J0" toJunction="J6" end="300" vehsPerHour="111.22001532298813"/>
  <flow id="JF39058" begin="240" fromJunction="J0" toJunction="J5" end="300" vehsPerHour="122.56278682806757"/>
  <flow id="JF39059" begin="240" fromJunction="J0" toJunction="J4" end="300" vehsPerHour="81.01793908016414"/>
  <flow id="JF39060" begin="240" fromJunction="J3" toJunction="J7" end="300" vehsPerHour="103.02184513030801"/>
  <flow id="JF39061" begin="240" fromJunction="J3" toJunction="J6" end="300" vehsPerHour="132.1069649200366"/>
  <flow id="JF39062" begin="240" fromJunction="J3" toJunction="J5" end="300" vehsPerHour="12.690942915228488"/>
  <flow id="JF39063" begin="240" fromJunction="J3" toJunction="J4" end="300" vehsPerHour="117.35783615763346"/>
  <flow id="JF39064" begin="240" fromJunction="J7" toJunction="J6" end="300" vehsPerHour="52.26975239281175"/>
  <flow id="JF39065" begin="240" fromJunction="J7" toJunction="J5" end="300" vehsPerHour="29.3926295959194"/>
  <flow id="JF39066" begin="240" fromJunction="J7" toJunction="J4" end="300" vehsPerHour="66.91779979485612"/>
  <flow id="JF39067" begin="240" fromJunction="J6" toJunction="J7" end="300" vehsPerHour="47.20544482569368"/>
  <flow id="JF39068" begin="240" fromJunction="J6" toJunction="J5" end="300" vehsPerHour="7.561375182483739"/>
  <flow id="JF39069" begin="240" fromJunction="J6" toJunction="J4" end="300" vehsPerHour="13.91447450321998"/>
  <flow id="JF39070" begin="240" fromJunction="J5" toJunction="J7" end="300" vehsPerHour="29.934571420841767"/>
  <flow id="JF39071" begin="240" fromJunction="J5" toJunction="J6" end="300" vehsPerHour="38.37873302609688"/>
  <flow id="JF39072" begin="240" fromJunction="J5" toJunction="J4" end="300" vehsPerHour="60.458221554465865"/>
  <flow id="JF39073" begin="240" fromJunction="J4" toJunction="J7" end="300" vehsPerHour="0.08551387639025303"/>
  <flow id="JF39074" begin="240" fromJunction="J4" toJunction="J6" end="300" vehsPerHour="64.79348731484234"/>
  <flow id="JF39075" begin="240" fromJunction="J4" toJunction="J5" end="300" vehsPerHour="0.9265523035880388"/>
  <flow id="JF39076" begin="240" fromJunction="J7" toJunction="J0" end="300" vehsPerHour="58.93282108906912"/>
  <flow id="JF39077" begin="240" fromJunction="J7" toJunction="J3" end="300" vehsPerHour="32.91797211025905"/>
  <flow id="JF39078" begin="240" fromJunction="J6" toJunction="J0" end="300" vehsPerHour="24.55710333074679"/>
  <flow id="JF39079" begin="240" fromJunction="J6" toJunction="J3" end="300" vehsPerHour="55.29834565970275"/>
  <flow id="JF39080" begin="240" fromJunction="J5" toJunction="J0" end="300" vehsPerHour="10.911208086798828"/>
  <flow id="JF39081" begin="240" fromJunction="J5" toJunction="J3" end="300" vehsPerHour="67.68453545656863"/>
  <flow id="JF39082" begin="240" fromJunction="J4" toJunction="J0" end="300" vehsPerHour="46.54891270229484"/>
  <flow id="JF39083" begin="240" fromJunction="J4" toJunction="J3" end="300" vehsPerHour="21.010696909768416"/>
  <flow id="JF39084" begin="300" fromJunction="J0" toJunction="J3" end="360" vehsPerHour="436.55863580454417"/>
  <flow id="JF39085" begin="300" fromJunction="J3" toJunction="J0" end="360" vehsPerHour="56.01780682762722"/>
  <flow id="JF39086" begin="300" fromJunction="J0" toJunction="J7" end="360" vehsPerHour="122.54588953618283"/>
  <flow id="JF39087" begin="300" fromJunction="J0" toJunction="J6" end="360" vehsPerHour="86.81016384006587"/>
  <flow id="JF39088" begin="300" fromJunction="J0" toJunction="J5" end="360" vehsPerHour="55.51281541979556"/>
  <flow id="JF39089" begin="300" fromJunction="J0" toJunction="J4" end="360" vehsPerHour="47.58694124449916"/>
  <flow id="JF39090" begin="300" fromJunction="J3" toJunction="J7" end="360" vehsPerHour="74.55081706978235"/>
  <flow id="JF39091" begin="300" fromJunction="J3" toJunction="J6" end="360" vehsPerHour="61.183532039884334"/>
  <flow id="JF39092" begin="300" fromJunction="J3" toJunction="J5" end="360" vehsPerHour="72.25416516085139"/>
  <flow id="JF39093" begin="300" fromJunction="J3" toJunction="J4" end="360" vehsPerHour="92.09499999798008"/>
  <flow id="JF39094" begin="300" fromJunction="J7" toJunction="J6" end="360" vehsPerHour="53.31868479021285"/>
  <flow id="JF39095" begin="300" fromJunction="J7" toJunction="J5" end="360" vehsPerHour="44.546059073590186"/>
  <flow id="JF39096" begin="300" fromJunction="J7" toJunction="J4" end="360" vehsPerHour="33.01682673598506"/>
  <flow id="JF39097" begin="300" fromJunction="J6" toJunction="J7" end="360" vehsPerHour="55.50343618840379"/>
  <flow id="JF39098" begin="300" fromJunction="J6" toJunction="J5" end="360" vehsPerHour="1.8799404336553354"/>
  <flow id="JF39099" begin="300" fromJunction="J6" toJunction="J4" end="360" vehsPerHour="35.95706280656916"/>
  <flow id="JF39100" begin="300" fromJunction="J5" toJunction="J7" end="360" vehsPerHour="0.5978404849800196"/>
  <flow id="JF39101" begin="300" fromJunction="J5" toJunction="J6" end="360" vehsPerHour="4.663876653718938"/>
  <flow id="JF39102" begin="300" fromJunction="J5" toJunction="J4" end="360" vehsPerHour="55.01387639865468"/>
  <flow id="JF39103" begin="300" fromJunction="J4" toJunction="J7" end="360" vehsPerHour="7.907991668971611"/>
  <flow id="JF39104" begin="300" fromJunction="J4" toJunction="J6" end="360" vehsPerHour="66.85971632160567"/>
  <flow id="JF39105" begin="300" fromJunction="J4" toJunction="J5" end="360" vehsPerHour="38.96081303247727"/>
  <flow id="JF39106" begin="300" fromJunction="J7" toJunction="J0" end="360" vehsPerHour="34.007239750164906"/>
  <flow id="JF39107" begin="300" fromJunction="J7" toJunction="J3" end="360" vehsPerHour="34.401935940490034"/>
  <flow id="JF39108" begin="300" fromJunction="J6" toJunction="J0" end="360" vehsPerHour="56.4124297140107"/>
  <flow id="JF39109" begin="300" fromJunction="J6" toJunction="J3" end="360" vehsPerHour="60.9364875483125"/>
  <flow id="JF39110" begin="300" fromJunction="J5" toJunction="J0" end="360" vehsPerHour="65.15461555025945"/>
  <flow id="JF39111" begin="300" fromJunction="J5" toJunction="J3" end="360" vehsPerHour="31.84773112945893"/>
  <flow id="JF39112" begin="300" fromJunction="J4" toJunction="J0" end="360" vehsPerHour="1.499017749254215"/>
  <flow id="JF39113" begin="300" fromJunction="J4" toJunction="J3" end="360" vehsPerHour="27.940869909763638"/>
  <flow id="JF39114" begin="360" fromJunction="J0" toJunction="J3" end="420" vehsPerHour="226.90104597630693"/>
  <flow id="JF39115" begin="360" fromJunction="J3" toJunction="J0" end="420" vehsPerHour="348.50703198370496"/>
  <flow id="JF39116" begin="360" fromJunction="J0" toJunction="J7" end="420" vehsPerHour="46.15766542946423"/>
  <flow id="JF39117" begin="360" fromJunction="J0" toJunction="J6" end="420" vehsPerHour="97.86487426150981"/>
  <flow id="JF39118" begin="360" fromJunction="J0" toJunction="J5" end="420" vehsPerHour="57.883722000242734"/>
  <flow id="JF39119" begin="360" fromJunction="J0" toJunction="J4" end="420" vehsPerHour="112.20478091721255"/>
  <flow id="JF39120" begin="360" fromJunction="J3" toJunction="J7" end="420" vehsPerHour="37.07032979963854"/>
  <flow id="JF39121" begin="360" fromJunction="J3" toJunction="J6" end="420" vehsPerHour="129.7401068376978"/>
  <flow id="JF39122" begin="360" fromJunction="J3" toJunction="J5" end="420" vehsPerHour="132.55647872720252"/>
  <flow id="JF39123" begin="360" fromJunction="J3" toJunction="J4" end="420" vehsPerHour="102.31056155052485"/>
  <flow id="JF39124" begin="360" fromJunction="J7" toJunction="J6" end="420" vehsPerHour="37.62316648769377"/>
  <flow id="JF39125" begin="360" fromJunction="J7" toJunction="J5" end="420" vehsPerHour="60.699475173892196"/>
  <flow id="JF39126" begin="360" fromJunction="J7" toJunction="J4" end="420" vehsPerHour="0.7866785638532664"/>
  <flow id="JF39127" begin="360" fromJunction="J6" toJunction="J7" end="420" vehsPerHour="29.90280888347626"/>
  <flow id="JF39128" begin="360" fromJunction="J6" toJunction="J5" end="420" vehsPerHour="47.8563519159016"/>
  <flow id="JF39129" begin="360" fromJunction="J6" toJunction="J4" end="420" vehsPerHour="37.041986970233296"/>
  <flow id="JF39130" begin="360" fromJunction="J5" toJunction="J7" end="420" vehsPerHour="59.42175683782161"/>
  <flow id="JF39131" begin="360" fromJunction="J5" toJunction="J6" end="420" vehsPerHour="24.29503067305871"/>
  <flow id="JF39132" begin="360" fromJunction="J5" toJunction="J4" end="420" vehsPerHour="2.410348393729951"/>
  <flow id="JF39133" begin="360" fromJunction="J4" toJunction="J7" end="420" vehsPerHour="5.447445856497438"/>
  <flow id="JF39134" begin="360" fromJunction="J4" toJunction="J6" end="420" vehsPerHour="64.29155556384944"/>
  <flow id="JF39135" begin="360" fromJunction="J4" toJunction="J5" end="420" vehsPerHour="33.75342205354179"/>
  <flow id="JF39136" begin="360" fromJunction="J7" toJunction="J0" end="420" vehsPerHour="23.478132961573863"/>
  <flow id="JF39137" begin="360" fromJunction="J7" toJunction="J3" end="420" vehsPerHour="10.450527374238925"/>
  <flow id="JF39138" begin="360" fromJunction="J6" toJunction="J0" end="420" vehsPerHour="6.603320531245215"/>
  <flow id="JF39139" begin="360" fromJunction="J6" toJunction="J3" end="420" vehsPerHour="18.23998799727757"/>
  <flow id="JF39140" begin="360" fromJunction="J5" toJunction="J0" end="420" vehsPerHour="53.38413378832218"/>
  <flow id="JF39141" begin="360" fromJunction="J5" toJunction="J3" end="420" vehsPerHour="40.5720823582581"/>
  <flow id="JF39142" begin="360" fromJunction="J4" toJunction="J0" end="420" vehsPerHour="37.929952735099896"/>
  <flow id="JF39143" begin="360" fromJunction="J4" toJunction="J3" end="420" vehsPerHour="27.188766802470756"/>
  <flow id="JF39144" begin="420" fromJunction="J0" toJunction="J3" end="480" vehsPerHour="81.44374895622319"/>
  <flow id="JF39145" begin="420" fromJunction="J3" toJunction="J0" end="480" vehsPerHour="48.292529414936276"/>
  <flow id="JF39146" begin="420" fromJunction="J0" toJunction="J7" end="480" vehsPerHour="84.69289049182761"/>
  <flow id="JF39147" begin="420" fromJunction="J0" toJunction="J6" end="480" vehsPerHour="100.20385518138765"/>
  <flow id="JF39148" begin="420" fromJunction="J0" toJunction="J5" end="480" vehsPerHour="92.9939988803461"/>
  <flow id="JF39149" begin="420" fromJunction="J0" toJunction="J4" end="480" vehsPerHour="50.5865140980852"/>
  <flow id="JF39150" begin="420" fromJunction="J3" toJunction="J7" end="480" vehsPerHour="51.666227038221095"/>
  <flow id="JF39151" begin="420" fromJunction="J3" toJunction="J6" end="480" vehsPerHour="70.29602693877358"/>
  <flow id="JF39152" begin="420" fromJunction="J3" toJunction="J5" end="480" vehsPerHour="77.98305127707074"/>
  <flow id="JF39153" begin="420" fromJunction="J3" toJunction="J4" end="480" vehsPerHour="43.36699606816871"/>
  <flow id="JF39154" begin="480" fromJunction="J0" toJunction="J3" end="540" vehsPerHour="304.16793853818945"/>
  <flow id="JF39155" begin="480" fromJunction="J3" toJunction="J0" end="540" vehsPerHour="105.23511607085989"/>
  <flow id="JF39156" begin="480" fromJunction="J0" toJunction="J7" end="540" vehsPerHour="128.39284051509924"/>
  <flow id="JF39157" begin="480" fromJunction="J0" toJunction="J6" end="540" vehsPerHour="72.65435492313635"/>
  <flow id="JF39158" begin="480" fromJunction="J0" toJunction="J5" end="540" vehsPerHour="9.720236937729162"/>
  <flow id="JF39159" begin="480" fromJunction="J0" toJunction="J4" end="540" vehsPerHour="122.18298919868536"/>
  <flow id="JF39160" begin="480" fromJunction="J3" toJunction="J7" end="540" vehsPerHour="36.31302137538735"/>
  <flow id="JF39161" begin="480" fromJunction="J3" toJunction="J6" end="540" vehsPerHour="17.33843238335081"/>
  <flow id="JF39162" begin="480" fromJunction="J3" toJunction="J5" end="540" vehsPerHour="38.413215002168094"/>
  <flow id="JF39163" begin="480" fromJunction="J3" toJunction="J4" end="540" vehsPerHour="3.964215518595765"/>
  <flow id="JF39164" begin="540" fromJunction="J0" toJunction="J3" end="600" vehsPerHour="140.76002179804382"/>
  <flow id="JF39165" begin="540" fromJunction="J3" toJunction="J0" end="600" vehsPerHour="247.07502966657455"/>
  <flow id="JF39166" begin="540" fromJunction="J0" toJunction="J7" end="600" vehsPerHour="110.62959384317494"/>
  <flow id="JF39167" begin="540" fromJunction="J0" toJunction="J6" end="600" vehsPerHour="119.00388354229298"/>
  <flow id="JF39168" begin="540" fromJunction="J0" toJunction="J5" end="600" vehsPerHour="51.045765701110206"/>
  <flow id="JF39169" begin="540" fromJunction="J0" toJunction="J4" end="600" vehsPerHour="46.352334824336346"/>
  <flow id="JF39170" begin="540" fromJunction="J3" toJunction="J7" end="600" vehsPerHour="43.37681744269166"/>
  <flow id="JF39171" begin="540" fromJunction="J3" toJunction="J6" end="600" vehsPerHour="19.765645023801707"/>
  <flow id="JF39172" begin="540" fromJunction="J3" toJunction="J5" end="600" vehsPerHour="109.01743821917002"/>
  <flow id="JF39173" begin="540" fromJunction="J3" toJunction="J4" end="600" vehsPerHour="21.27298436672786"/>
  <flow id="JF39174" begin="540" fromJunction="J7" toJunction="J6" end="600" vehsPerHour="53.31548252971776"/>
  <flow id="JF39175" begin="540" fromJunction="J7" toJunction="J5" end="600" vehsPerHour="61.523210763977715"/>
  <flow id="JF39176" begin="540" fromJunction="J7" toJunction="J4" end="600" vehsPerHour="0.145319023227186"/>
  <flow id="JF39177" begin="540" fromJunction="J6" toJunction="J7" end="600" vehsPerHour="0.5748314401555328"/>
  <flow id="JF39178" begin="540" fromJunction="J6" toJunction="J5" end="600" vehsPerHour="52.615253518444966"/>
  <flow id="JF39179" begin="540" fromJunction="J6" toJunction="J4" end="600" vehsPerHour="7.44551545921931"/>
  <flow id="JF39180" begin="540" fromJunction="J5" toJunction="J7" end="600" vehsPerHour="11.906051637695768"/>
  <flow id="JF39181" begin="540" fromJunction="J5" toJunction="J6" end="600" vehsPerHour="25.011223642602356"/>
  <flow id="JF39182" begin="540" fromJunction="J5" toJunction="J4" end="600" vehsPerHour="14.105843428459336"/>
  <flow id="JF39183" begin="540" fromJunction="J4" toJunction="J7" end="600" vehsPerHour="7.650681104134435"/>
  <flow id="JF39184" begin="540" fromJunction="J4" toJunction="J6" end="600" vehsPerHour="23.258857294747166"/>
  <flow id="JF39185" begin="540" fromJunction="J4" toJunction="J5" end="600" vehsPerHour="61.87318523418349"/>
  <flow id="JF39186" begin="540" fromJunction="J7" toJunction="J0" end="600" vehsPerHour="37.37450538439407"/>
  <flow id="JF39187" begin="540" fromJunction="J7" toJunction="J3" end="600" vehsPerHour="25.270737984611845"/>
  <flow id="JF39188" begin="540" fromJunction="J6" toJunction="J0" end="600" vehsPerHour="4.55933098427795"/>
  <flow id="JF39189" begin="540" fromJunction="J6" toJunction="J3" end="600" vehsPerHour="51.34130199904598"/>
  <flow id="JF39190" begin="540" fromJunction="J5" toJunction="J0" end="600" vehsPerHour="9.846078045737642"/>
  <flow id="JF39191" begin="540" fromJunction="J5" toJunction="J3" end="600" vehsPerHour="7.771721815451948"/>
  <flow id="JF39192" begin="540" fromJunction="J4" toJunction="J0" end="600" vehsPerHour="31.878900403848206"/>
  <flow id="JF39193" begin="540" fromJunction="J4" toJunction="J3" end="600" vehsPerHour="0.1025814931198432"/>
  <flow id="JF39194" begin="600" fromJunction="J0" toJunction="J3" end="660" vehsPerHour="161.42824453863426"/>
  <flow id="JF39195" begin="600" fromJunction="J3" toJunction="J0" end="660" vehsPerHour="480.3928445698275"/>
  <flow id="JF39196" begin="600" fromJunction="J0" toJunction="J7" end="660" vehsPerHour="94.60257059763343"/>
  <flow id="JF39197" begin="600" fromJunction="J0" toJunction="J6" end="660" vehsPerHour="92.64384010646651"/>
  <flow id="JF39198" begin="600" fromJunction="J0" toJunction="J5" end="660" vehsPerHour="136.0417474788252"/>
  <flow id="JF39199" begin="600" fromJunction="J0" toJunction="J4" end="660" vehsPerHour="65.71791545435352"/>
  <flow id="JF39200" begin="600" fromJunction="J3" toJunction="J7" end="660" vehsPerHour="48.316125470521555"/>
  <flow id="JF39201" begin="600" fromJunction="J3" toJunction="J6" end="660" vehsPerHour="106.49024456694009"/>
  <flow id="JF39202" begin="600" fromJunction="J3" toJunction="J5" end="660" vehsPerHour="16.11574617219589"/>