<?xml version="1.0" encoding="UTF-8"?>
<routes xmlns:xsi="http://www.w3.org/2001/XMLSchema-instance" xsi:noNamespaceSchemaLocation="http://sumo.dlr.de/xsd/routes_file.xsd">
  <flow id="JF50994" begin="0" fromJunction="J0" toJunction="J3" end="60" vehsPerHour="11.432476492028558"/>
  <flow id="JF50995" begin="0" fromJunction="J3" toJunction="J0" end="60" vehsPerHour="247.72169375588976"/>
  <flow id="JF50996" begin="0" fromJunction="J0" toJunction="J7" end="60" vehsPerHour="22.62950506983709"/>
  <flow id="JF50997" begin="0" fromJunction="J0" toJunction="J6" end="60" vehsPerHour="10.20913558325859"/>
  <flow id="JF50998" begin="0" fromJunction="J0" toJunction="J5" end="60" vehsPerHour="94.12075949178515"/>
  <flow id="JF50999" begin="0" fromJunction="J0" toJunction="J4" end="60" vehsPerHour="102.15182282451902"/>
  <flow id="JF51000" begin="0" fromJunction="J3" toJunction="J7" end="60" vehsPerHour="62.96420166246655"/>
  <flow id="JF51001" begin="0" fromJunction="J3" toJunction="J6" end="60" vehsPerHour="50.51025711936886"/>
  <flow id="JF51002" begin="0" fromJunction="J3" toJunction="J5" end="60" vehsPerHour="115.95528774881772"/>
  <flow id="JF51003" begin="0" fromJunction="J3" toJunction="J4" end="60" vehsPerHour="91.15338393076365"/>
  <flow id="JF51004" begin="0" fromJunction="J7" toJunction="J6" end="60" vehsPerHour="26.460496963672938"/>
  <flow id="JF51005" begin="0" fromJunction="J7" toJunction="J5" end="60" vehsPerHour="51.736250391066704"/>
  <flow id="JF51006" begin="0" fromJunction="J7" toJunction="J4" end="60" vehsPerHour="51.846214780304294"/>
  <flow id="JF51007" begin="0" fromJunction="J6" toJunction="J7" end="60" vehsPerHour="68.43088318564233"/>
  <flow id="JF51008" begin="0" fromJunction="J6" toJunction="J5" end="60" vehsPerHour="59.27922139552864"/>
  <flow id="JF51009" begin="0" fromJunction="J6" toJunction="J4" end="60" vehsPerHour="52.99305546917482"/>
  <flow id="JF51010" begin="0" fromJunction="J5" toJunction="J7" end="60" vehsPerHour="54.203227857882524"/>
  <flow id="JF51011" begin="0" fromJunction="J5" toJunction="J6" end="60" vehsPerHour="56.50656187335549"/>
  <flow id="JF51012" begin="0" fromJunction="J5" toJunction="J4" end="60" vehsPerHour="31.562517875576894"/>
  <flow id="JF51013" begin="0" fromJunction="J4" toJunction="J7" end="60" vehsPerHour="29.65738194640661"/>
  <flow id="JF51014" begin="0" fromJunction="J4" toJunction="J6" end="60" vehsPerHour="54.796375879429874"/>
  <flow id="JF51015" begin="0" fromJunction="J4" toJunction="J5" end="60" vehsPerHour="49.24427308379496"/>
  <flow id="JF51016" begin="0" fromJunction="J7" toJunction="J0" end="60" vehsPerHour="10.148951211417748"/>
  <flow id="JF51017" begin="0" fromJunction="J7" toJunction="J3" end="60" vehsPerHour="26.706489490527655"/>
  <flow id="JF51018" begin="0" fromJunction="J6" toJunction="J0" end="60" vehsPerHour="68.47318124733836"/>
  <flow id="JF51019" begin="0" fromJunction="J6" toJunction="J3" end="60" vehsPerHour="16.759091953027028"/>
  <flow id="JF51020" begin="0" fromJunction="J5" toJunction="J0" end="60" vehsPerHour="44.11114772298896"/>
  <flow id="JF51021" begin="0" fromJunction="J5" toJunction="J3" end="60" vehsPerHour="23.354567899724316"/>
  <flow id="JF51022" begin="0" fromJunction="J4" toJunction="J0" end="60" vehsPerHour="1.0763064055103697"/>
  <flow id="JF51023" begin="0" fromJunction="J4" toJunction="J3" end="60" vehsPerHour="66.47448623771889"/>
  <flow id="JF51024" begin="60" fromJunction="J0" toJunction="J3" end="120" vehsPerHour="132.3942775135249"/>
  <flow id="JF51025" begin="60" fromJunction="J3" toJunction="J0" end="120" vehsPerHour="33.66037257015599"/>
  <flow id="JF51026" begin="60" fromJunction="J0" toJunction="J7" end="120" vehsPerHour="19.560612787930822"/>
  <flow id="JF51027" begin="60" fromJunction="J0" toJunction="J6" end="120" vehsPerHour="76.17429814273348"/>
  <flow id="JF51028" begin="60" fromJunction="J0" toJunction="J5" end="120" vehsPerHour="25.977715181835737"/>
  <flow id="JF51029" begin="60" fromJunction="J0" toJunction="J4" end="120" vehsPerHour="44.24998657431881"/>
  <flow id="JF51030" begin="60" fromJunction="J3" toJunction="J7" end="120" vehsPerHour="35.088554307111714"/>
  <flow id="JF51031" begin="60" fromJunction="J3" toJunction="J6" end="120" vehsPerHour="46.522572109832964"/>
  <flow id="JF51032" begin="60" fromJunction="J3" toJunction="J5" end="120" vehsPerHour="59.84569202501005"/>
  <flow id="JF51033" begin="60" fromJunction="J3" toJunction="J4" end="120" vehsPerHour="44.39662858629868"/>
  <flow id="JF51034" begin="60" fromJunction="J7" toJunction="J6" end="120" vehsPerHour="12.229796161953011"/>
  <flow id="JF51035" begin="60" fromJunction="J7" toJunction="J5" end="120" vehsPerHour="8.231185070075645"/>
  <flow id="JF51036" begin="60" fromJunction="J7" toJunction="J4" end="120" vehsPerHour="12.185097879334734"/>
  <flow id="JF51037" begin="60" fromJunction="J6" toJunction="J7" end="120" vehsPerHour="55.92130196294947"/>
  <flow id="JF51038" begin="60" fromJunction="J6" toJunction="J5" end="120" vehsPerHour="34.625394010695516"/>
  <flow id="JF51039" begin="60" fromJunction="J6" toJunction="J4" end="120" vehsPerHour="20.025400839630798"/>
  <flow id="JF51040" begin="60" fromJunction="J5" toJunction="J7" end="120" vehsPerHour="2.187660630067547"/>
  <flow id="JF51041" begin="60" fromJunction="J5" toJunction="J6" end="120" vehsPerHour="13.715925650525396"/>
  <flow id="JF51042" begin="60" fromJunction="J5" toJunction="J4" end="120" vehsPerHour="29.42703276414372"/>
  <flow id="JF51043" begin="60" fromJunction="J4" toJunction="J7" end="120" vehsPerHour="20.369544601179772"/>
  <flow id="JF51044" begin="60" fromJunction="J4" toJunction="J6" end="120" vehsPerHour="10.726813684125954"/>
  <flow id="JF51045" begin="60" fromJunction="J4" toJunction="J5" end="120" vehsPerHour="3.4203351049898956"/>
  <flow id="JF51046" begin="60" fromJunction="J7" toJunction="J0" end="120" vehsPerHour="67.76696428039502"/>
  <flow id="JF51047" begin="60" fromJunction="J7" toJunction="J3" end="120" vehsPerHour="66.53330473270704"/>
  <flow id="JF51048" begin="60" fromJunction="J6" toJunction="J0" end="120" vehsPerHour="23.948203306993538"/>
  <flow id="JF51049" begin="60" fromJunction="J6" toJunction="J3" end="120" vehsPerHour="4.194426083672348"/>
  <flow id="JF51050" begin="60" fromJunction="J5" toJunction="J0" end="120" vehsPerHour="61.170946539848345"/>
  <flow id="JF51051" begin="60" fromJunction="J5" toJunction="J3" end="120" vehsPerHour="47.21946700392022"/>
  <flow id="JF51052" begin="60" fromJunction="J4" toJunction="J0" end="120" vehsPerHour="31.84240978118556"/>
  <flow id="JF51053" begin="60" fromJunction="J4" toJunction="J3" end="120" vehsPerHour="50.28519107314705"/>
  <flow id="JF51054" begin="120" fromJunction="J0" toJunction="J3" end="180" vehsPerHour="429.9407970167449"/>
  <flow id="JF51055" begin="120" fromJunction="J3" toJunction="J0" end="180" vehsPerHour="405.5097001852947"/>
  <flow id="JF51056" begin="120" fromJunction="J0" toJunction="J7" end="180" vehsPerHour="111.40776020467078"/>
  <flow id="JF51057" begin="120" fromJunction="J0" toJunction="J6" end="180" vehsPerHour="31.687779214817574"/>
  <flow id="JF51058" begin="120" fromJunction="J0" toJunction="J5" end="180" vehsPerHour="84.88230563946006"/>
  <flow id="JF51059" begin="120" fromJunction="J0" toJunction="J4" end="180" vehsPerHour="98.24826450094423"/>
  <flow id="JF51060" begin="120" fromJunction="J3" toJunction="J7" end="180" vehsPerHour="125.48330454116292"/>
  <flow id="JF51061" begin="120" fromJunction="J3" toJunction="J6" end="180" vehsPerHour="60.56916814819957"/>
  <flow id="JF51062" begin="120" fromJunction="J3" toJunction="J5" end="180" vehsPerHour="48.07096366879153"/>
  <flow id="JF51063" begin="120" fromJunction="J3" toJunction="J4" end="180" vehsPerHour="29.708735211602313"/>
  <flow id="JF51064" begin="180" fromJunction="J0" toJunction="J3" end="240" vehsPerHour="409.40029868906856"/>
  <flow id="JF51065" begin="180" fromJunction="J3" toJunction="J0" end="240" vehsPerHour="331.0162338885374"/>
  <flow id="JF51066" begin="180" fromJunction="J0" toJunction="J7" end="240" vehsPerHour="25.659336925914562"/>
  <flow id="JF51067" begin="180" fromJunction="J0" toJunction="J6" end="240" vehsPerHour="75.32852143563129"/>
  <flow id="JF51068" begin="180" fromJunction="J0" toJunction="J5" end="240" vehsPerHour="44.464222967391144"/>
  <flow id="JF51069" begin="180" fromJunction="J0" toJunction="J4" end="240" vehsPerHour="77.01059159432914"/>
  <flow id="JF51070" begin="180" fromJunction="J3" toJunction="J7" end="240" vehsPerHour="135.0221059524431"/>
  <flow id="JF51071" begin="180" fromJunction="J3" toJunction="J6" end="240" vehsPerHour="26.0678407570232"/>
  <flow id="JF51072" begin="180" fromJunction="J3" toJunction="J5" end="240" vehsPerHour="52.45122408704402"/>
  <flow id="JF51073" begin="180" fromJunction="J3" toJunction="J4" end="240" vehsPerHour="100.15235765098956"/>
  <flow id="JF51074" begin="180" fromJunction="J7" toJunction="J6" end="240" vehsPerHour="64.76359753096389"/>
  <flow id="JF51075" begin="180" fromJunction="J7" toJunction="J5" end="240" vehsPerHour="41.90301891375589"/>
  <flow id="JF51076" begin="180" fromJunction="J7" toJunction="J4" end="240" vehsPerHour="14.363371507056595"/>
  <flow id="JF51077" begin="180" fromJunction="J6" toJunction="J7" end="240" vehsPerHour="54.80978381256103"/>
  <flow id="JF51078" begin="180" fromJunction="J6" toJunction="J5" end="240" vehsPerHour="50.66559437898977"/>
  <flow id="JF51079" begin="180" fromJunction="J6" toJunction="J4" end="240" vehsPerHour="13.346496101543144"/>
  <flow id="JF51080" begin="180" fromJunction="J5" toJunction="J7" end="240" vehsPerHour="22.882528486216806"/>
  <flow id="JF51081" begin="180" fromJunction="J5" toJunction="J6" end="240" vehsPerHour="29.28157894997822"/>
  <flow id="JF51082" begin="180" fromJunction="J5" toJunction="J4" end="240" vehsPerHour="20.629077839068614"/>
  <flow id="JF51083" begin="180" fromJunction="J4" toJunction="J7" end="240" vehsPerHour="44.651763186222574"/>
  <flow id="JF51084" begin="180" fromJunction="J4" toJunction="J6" end="240" vehsPerHour="54.55584138484649"/>
  <flow id="JF51085" begin="180" fromJunction="J4" toJunction="J5" end="240" vehsPerHour="31.30455434223783"/>
  <flow id="JF51086" begin="180" fromJunction="J7" toJunction="J0" end="240" vehsPerHour="17.430998649847357"/>
  <flow id="JF51087" begin="180" fromJunction="J7" toJunction="J3" end="240" vehsPerHour="2.59910001025786"/>
  <flow id="JF51088" begin="180" fromJunction="J6" toJunction="J0" end="240" vehsPerHour="24.535929316009348"/>
  <flow id="JF51089" begin="180" fromJunction="J6" toJunction="J3" end="240" vehsPerHour="31.52643662544211"/>
  <flow id="JF51090" begin="180" fromJunction="J5" toJunction="J0" end="240" vehsPerHour="43.06003123287722"/>
  <flow id="JF51091" begin="180" fromJunction="J5" toJunction="J3" end="240" vehsPerHour="32.1214513227314"/>
  <flow id="JF51092" begin="180" fromJunction="J4" toJunction="J0" end="240" vehsPerHour="3.720062911432706"/>
  <flow id="JF51093" begin="180" fromJunction="J4" toJunction="J3" end="240" vehsPerHour="22.907191671974594"/>
  <flow id="JF51094" begin="240" fromJunction="J0" toJunction="J3" end="300" vehsPerHour="77.12588760847244"/>
  <flow id="JF51095" begin="240" fromJunction="J3" toJunction="J0" end="300" vehsPerHour="120.98875951950046"/>
  <flow id="JF51096" begin="240" fromJunction="J0" toJunction="J7" end="300" vehsPerHour="51.90142111255595"/>
  <flow id="JF51097" begin="240" fromJunction="J0" toJunction="J6" end="300" vehsPerHour="56.67186130923543"/>
  <flow id="JF51098" begin="240" fromJunction="J0" toJunction="J5" end="300" vehsPerHour="124.99757026603383"/>
  <flow id="JF51099" begin="240" fromJunction="J0" toJunction="J4" end="300" vehsPerHour="50.421407542376414"/>
  <flow id="JF51100" begin="240" fromJunction="J3" toJunction="J7" end="300" vehsPerHour="130.26877278940873"/>
  <flow id="JF51101" begin="240" fromJunction="J3" toJunction="J6" end="300" vehsPerHour="54.872671265614976"/>
  <flow id="JF51102" begin="240" fromJunction="J3" toJunction="J5" end="300" vehsPerHour="120.95758293478899"/>
  <flow id="JF51103" begin="240" fromJunction="J3" toJunction="J4" end="300" vehsPerHour="0.7830440597948531"/>
  <flow id="JF51104" begin="240" fromJunction="J7" toJunction="J6" end="300" vehsPerHour="67.47967979842186"/>
  <flow id="JF51105" begin="240" fromJunction="J7" toJunction="J5" end="300" vehsPerHour="20.75867063847934"/>
  <flow id="JF51106" begin="240" fromJunction="J7" toJunction="J4" end="300" vehsPerHour="65.21398354755435"/>
  <flow id="JF51107" begin="240" fromJunction="J6" toJunction="J7" end="300" vehsPerHour="52.09899558480985"/>
  <flow id="JF51108" begin="240" fromJunction="J6" toJunction="J5" end="300" vehsPerHour="14.034272814433658"/>
  <flow id="JF51109" begin="240" fromJunction="J6" toJunction="J4" end="300" vehsPerHour="8.18636738230551"/>
  <flow id="JF51110" begin="240" fromJunction="J5" toJunction="J7" end="300" vehsPerHour="2.9640048919325483"/>
  <flow id="JF51111" begin="240" fromJunction="J5" toJunction="J6" end="300" vehsPerHour="66.95787255753484"/>
  <flow id="JF51112" begin="240" fromJunction="J5" toJunction="J4" end="300" vehsPerHour="46.975708021964905"/>
  <flow id="JF51113" begin="240" fromJunction="J4" toJunction="J7" end="300" vehsPerHour="55.07674874323317"/>
  <flow id="JF51114" begin="240" fromJunction="J4" toJunction="J6" end="300" vehsPerHour="49.48476382031669"/>
  <flow id="JF51115" begin="240" fromJunction="J4" toJunction="J5" end="300" vehsPerHour="43.68751824912725"/>
  <flow id="JF51116" begin="240" fromJunction="J7" toJunction="J0" end="300" vehsPerHour="10.653241059831766"/>
  <flow id="JF51117" begin="240" fromJunction="J7" toJunction="J3" end="300" vehsPerHour="14.708878728601684"/>
  <flow id="JF51118" begin="240" fromJunction="J6" toJunction="J0" end="300" vehsPerHour="16.685610265249107"/>
  <flow id="JF51119" begin="240" fromJunction="J6" toJunction="J3" end="300" vehsPerHour="15.445230800090899"/>
  <flow id="JF51120" begin="240" fromJunction="J5" toJunction="J0" end="300" vehsPerHour="30.1342624115319"/>
  <flow id="JF51121" begin="240" fromJunction="J5" toJunction="J3" end="300" vehsPerHour="54.65216129017536"/>
  <flow id="JF51122" begin="240" fromJunction="J4" toJunction="J0" end="300" vehsPerHour="18.408242694198837"/>
  <flow id="JF51123" begin="240" fromJunction="J4" toJunction="J3" end="300" vehsPerHour="42.507028324239194"/>
  <flow id="JF51124" begin="300" fromJunction="J0" toJunction="J3" end="360" vehsPerHour="147.90447179759866"/>
  <flow id="JF51125" begin="300" fromJunction="J3" toJunction="J0" end="360" vehsPerHour="206.33599744441423"/>
  <flow id="JF51126" begin="300" fromJunction="J0" toJunction="J7" end="360" vehsPerHour="5.733138545743465"/>
  <flow id="JF51127" begin="300" fromJunction="J0" toJunction="J6" end="360" vehsPerHour="112.93868668897281"/>
  <flow id="JF51128" begin="300" fromJunction="J0" toJunction="J5" end="360" vehsPerHour="34.38604742177531"/>
  <flow id="JF51129" begin="300" fromJunction="J0" toJunction="J4" end="360" vehsPerHour="24.74775550861023"/>
  <flow id="JF51130" begin="300" fromJunction="J3" toJunction="J7" end="360" vehsPerHour="91.75609206631543"/>
  <flow id="JF51131" begin="300" fromJunction="J3" toJunction="J6" end="360" vehsPerHour="111.7628834991584"/>
  <flow id="JF51132" begin="300" fromJunction="J3" toJunction="J5" end="360" vehsPerHour="9.011335591143736"/>
  <flow id="JF51133" begin="300" fromJunction="J3" toJunction="J4" end="360" vehsPerHour="127.0012310133276"/>
  <flow id="JF51134" begin="300" fromJunction="J7" toJunction="J6" end="360" vehsPerHour="43.213356909587326"/>
  <flow id="JF51135" begin="300" fromJunction="J7" toJunction="J5" end="360" vehsPerHour="65.0818763692827"/>
  <flow id="JF51136" begin="300" fromJunction="J7" toJunction="J4" end="360" vehsPerHour="40.175769074074324"/>
  <flow id="JF51137" begin="300" fromJunction="J6" toJunction="J7" end="360" vehsPerHour="45.00169174733442"/>
  <flow id="JF51138" begin="300" fromJunction="J6" toJunction="J5" end="360" vehsPerHour="60.22440132784974"/>
  <flow id="JF51139" begin="300" fromJunction="J6" toJunction="J4" end="360" vehsPerHour="65.9101741709067"/>
  <flow id="JF51140" begin="300" fromJunction="J5" toJunction="J7" end="360" vehsPerHour="7.770016911945384"/>
  <flow id="JF51141" begin="300" fromJunction="J5" toJunction="J6" end="360" vehsPerHour="12.442431109637836"/>
  <flow id="JF51142" begin="300" fromJunction="J5" toJunction="J4" end="360" vehsPerHour="64.19920661271523"/>
  <flow id="JF51143" begin="300" fromJunction="J4" toJunction="J7" end="360" vehsPerHour="33.048050519072795"/>
  <flow id="JF51144" begin="300" fromJunction="J4" toJunction="J6" end="360" vehsPerHour="9.831767156290907"/>
  <flow id="JF51145" begin="300" fromJunction="J4" toJunction="J5" end="360" vehsPerHour="5.012962378480903"/>
  <flow id="JF51146" begin="300" fromJunction="J7" toJunction="J0" end="360" vehsPerHour="49.449308524367574"/>
  <flow id="JF51147" begin="300" fromJunction="J7" toJunction="J3" end="360" vehsPerHour="30.05704415715108"/>
  <flow id="JF51148" begin="300" fromJunction="J6" toJunction="J0" end="360" vehsPerHour="19.671371156704758"/>
  <flow id="JF51149" begin="300" fromJunction="J6" toJunction="J3" end="360" vehsPerHour="11.593508922409654"/>
  <flow id="JF51150" begin="300" fromJunction="J5" toJunction="J0" end="360" vehsPerHour="9.278519562134225"/>
  <flow id="JF51151" begin="300" fromJunction="J5" toJunction="J3" end="360" vehsPerHour="38.656662423061896"/>
  <flow id="JF51152" begin="300" fromJunction="J4" toJunction="J0" end="360" vehsPerHour="64.88338540169445"/>
  <flow id="JF51153" begin="300" fromJunction="J4" toJunction="J3" end="360" vehsPerHour="1.4105910265559636"/>
  <flow id="JF51154" begin="360" fromJunction="J0" toJunction="J3" end="420" vehsPerHour="230.48633462849838"/>
  <flow id="JF51155" begin="360" fromJunction="J3" toJunction="J0" end="420" vehsPerHour="498.0644286367245"/>
  <flow id="JF51156" begin="360" fromJunction="J0" toJunction="J7" end="420" vehsPerHour="34.04874358810052"/>
  <flow id="JF51157" begin="360" fromJunction="J0" toJunction="J6" end="420" vehsPerHour="13.199041443795965"/>
  <flow id="JF51158" begin="360" fromJunction="J0" toJunction="J5" end="420" vehsPerHour="44.69484217871648"/>
  <flow id="JF51159" begin="360" fromJunction="J0" toJunction="J4" end="420" vehsPerHour="83.722120026252"/>
  <flow id="JF51160" begin="360" fromJunction="J3" toJunction="J7" end="420" vehsPerHour="120.16842690695613"/>
  <flow id="JF51161" begin="360" fromJunction="J3" toJunction="J6" end="420" vehsPerHour="79.19775350133526"/>
  <flow id="JF51162" begin="360" fromJunction="J3" toJunction="J5" end="420" vehsPerHour="23.29197596989656"/>
  <flow id="JF51163" begin="360" fromJunction="J3" toJunction="J4" end="420" vehsPerHour="52.89751643379735"/>
  <flow id="JF51164" begin="360" fromJunction="J7" toJunction="J6" end="420" vehsPerHour="67.59429607739312"/>
  <flow id="JF51165" begin="360" fromJunction="J7" toJunction="J5" end="420" vehsPerHour="13.767079158460742"/>
  <flow id="JF51166" begin="360" fromJunction="J7" toJunction="J4" end="420" vehsPerHour="35.366092522209115"/>
  <flow id="JF51167" begin="360" fromJunction="J6" toJunction="J7" end="420" vehsPerHour="65.98094607795028"/>
  <flow id="JF51168" begin="360" fromJunction="J6" toJunction="J5" end="420" vehsPerHour="15.72072737864142"/>
  <flow id="JF51169" begin="360" fromJunction="J6" toJunction="J4" end="420" vehsPerHour="19.095873998502523"/>
  <flow id="JF51170" begin="360" fromJunction="J5" toJunction="J7" end="420" vehsPerHour="52.43106492806349"/>
  <flow id="JF51171" begin="360" fromJunction="J5" toJunction="J6" end="420" vehsPerHour="47.47915462138995"/>
  <flow id="JF51172" begin="360" fromJunction="J5" toJunction="J4" end="420" vehsPerHour="39.696515867541216"/>
  <flow id="JF51173" begin="360" fromJunction="J4" toJunction="J7" end="420" vehsPerHour="54.36118970778074"/>
  <flow id="JF51174" begin="360" fromJunction="J4" toJunction="J6" end="420" vehsPerHour="56.3598386529309"/>
  <flow id="JF51175" begin="360" fromJunction="J4" toJunction="J5" end="420" vehsPerHour="32.99946720111021"/>
  <flow id="JF51176" begin="360" fromJunction="J7" toJunction="J0" end="420" vehsPerHour="50.591169305520964"/>
  <flow id="JF51177" begin="360" fromJunction="J7" toJunction="J3" end="420" vehsPerHour="13.095062365437647"/>
  <flow id="JF51178" begin="360" fromJunction="J6" toJunction="J0" end="420" vehsPerHour="23.556236549270466"/>
  <flow id="JF51179" begin="360" fromJunction="J6" toJunction="J3" end="420" vehsPerHour="23.047315341882666"/>
  <flow id="JF51180" begin="360" fromJunction="J5" toJunction="J0" end="420" vehsPerHour="15.783535854159986"/>
  <flow id="JF51181" begin="360" fromJunction="J5" toJunction="J3" end="420" vehsPerHour="29.254805385615924"/>
  <flow id="JF51182" begin="360" fromJunction="J4" toJunction="J0" end="420" vehsPerHour="3.857970665973841"/>
  <flow id="JF51183" begin="360" fromJunction="J4" toJunction="J3" end="420" vehsPerHour="10.213343759667914"/>
  <flow id="JF51184" begin="420" fromJunction="J0" toJunction="J3" end="480" vehsPerHour="190.08060924446818"/>
  <flow id="JF51185" begin="420" fromJunction="J3" toJunction="J0" end="480" vehsPerHour="463.5397372817799"/>
  <flow id="JF51186" begin="420" fromJunction="J0" toJunction="J7" end="480" vehsPerHour="27.133007248637167"/>
  <flow id="JF51187" begin="420" fromJunction="J0" toJunction="J6" end="480" vehsPerHour="97.58810550877064"/>
  <flow id="JF51188" begin="420" fromJunction="J0" toJunction="J5" end="480" vehsPerHour="79.84295764374853"/>
  <flow id="JF51189" begin="420" fromJunction="J0" toJunction="J4" end="480" vehsPerHour="122.2084650738958"/>
  <flow id="JF51190" begin="420" fromJunction="J3" toJunction="J7" end="480" vehsPerHour="10.439160202029761"/>
  <flow id="JF51191" begin="420" fromJunction="J3" toJunction="J6" end="480" vehsPerHour="65.88799159247593"/>
  <flow id="JF51192" begin="420" fromJunction="J3" toJunction="J5" end="480" vehsPerHour="33.79191230516808"/>
  <flow id="JF51193" begin="420" fromJunction="J3" toJunction="J4" end="480" vehsPerHour="44.98914575091316"/>
  <flow id="JF51194" begin="480" fromJunction="J0" toJunction="J3" end="540" vehsPerHour="372.8854655276139"/>
  <flow id="JF51195" begin="480" fromJunction="J3" toJunction="J0" end="540" vehsPerHour="145.05977758947088"/>
  <flow id="JF51196" begin="480" fromJunction="J0" toJunction="J7" end="540" vehsPerHour="41.574150130598106"/>
  <flow id="JF51197" begin="480" fromJunction="J0" toJunction="J6" end="540" vehsPerHour="16.015219234480355"/>
  <flow id="JF51198" begin="480" fromJunction="J0" toJunction="J5" end="540" vehsPerHour="125.75625060103657"/>
  <flow id="JF51199" begin="480" fromJunction="J0" toJunction="J4" end="540" vehsPerHour="29.51245260688627"/>
  <flow id="JF51200" begin="480" fromJunction="J3" toJunction="J7" end="540" vehsPerHour="45.29341878377748"/>
  <flow id="JF51201" begin="480" fromJunction="J3" toJunction="J6" end="540" vehsPerHour="95.72798245981984"/>
  <flow id="JF51202" begin="480" fromJunction="J3" toJunction="J5" end="540" vehsPerHour="54.266264872789165"/>
  <flow id="JF51203" begin="480" fromJunction="J3" toJunction="J4" end="540" vehsPerHour="116.805108844023"/>
  <flow id="JF51204" begin="540" fromJunction="J0" toJunction="J3" end="600" vehsPerHour="218.0741054527752"/>
  <flow id="JF51205" begin="540" fromJunction="J3" toJunction="J0" end="600" vehsPerHour="128.9543853643444"/>
  <flow id="JF51206" begin="540" fromJunction="J0" toJunction="J7" end="600" vehsPerHour="73.42658563701568"/>
  <flow id="JF51207" begin="540" fromJunction="J0" toJunction="J6" end="600" vehsPerHour="78.07020464277346"/>
  <flow id="JF51208" begin="540" fromJunction="J0" toJunction="J5" end="600" vehsPerHour="89.68823576921017"/>
  <flow id="JF51209" begin="540" fromJunction="J0" toJunction="J4" end="600" vehsPerHour="7.465966057000161"/>
  <flow id="JF51210" begin="540" fromJunction="J3" toJunction="J7" end="600" vehsPerHour="62.682615808681106"/>
  <flow id="JF51211" begin="540" fromJunction="J3" toJunction="J6" end="600" vehsPerHour="31.35230797322629"/>
  <flow id="JF51212" begin="540" fromJunction="J3" toJunction="J5" end="600" vehsPerHour="28.30477328242481"/>
  <flow id="JF51213" begin="540" fromJunction="J3" toJunction="J4" end="600" vehsPerHour="66.76168484054861"/>
  <flow id="JF51214" begin="600" fromJunction="J0" toJunction="J3" end="660" vehsPerHour="427.2205550696874"/>
  <flow id="JF51215" begin="600" fromJunction="J3" toJunction="J0" end="660" vehsPerHour="210.35236913790413"/>
  <flow id="JF51216" begin="600" fromJunction="J0" toJunction="J7" end="660" vehsPerHour="45.53412594128895"/>
  <flow id="JF51217" begin="600" fromJunction="J0" toJunction="J6" end="660" vehsPerHour="87.39425316736028"/>
  <flow id="JF51218" begin="600" fromJunction="J0" toJunction="J5" end="660" vehsPerHour="12.305028471511555"/>
  <flow id="JF51219" begin="600" fromJunction="J0" toJunction="J4" end="660" vehsPerHour="29.504143758981147"/>
  <flow id="JF51220" begin="600" fromJunction="J3" toJunction="J7" end="660" vehsPerHour="72.99015635023433"/>
  <flow id="JF51221" begin="600" fromJunction="J3" toJunction="J6" end="660" vehsPerHour="74.09991871309455"/>
  <flow id="JF51222" begin="600" fromJunction="J3" toJunction="J5" end="660" vehsPerHour="82.81026854845634"/>
  <flow id="JF51223" begin="600" fromJunction="J3" toJunction="J4" end="660" vehsPerHour="93.6494642588726"/>
  <flow id="JF51224" begin="660" fromJunction="J0" toJunction="J3" end="720" vehsPerHour="43.475292214287244"/>
  <flow id="JF51225" begin="660" fromJunction="J3" toJunction="J0" end="720" vehsPerHour="62.44874569823497"/>
  <flow id="JF51226" begin="660" fromJunction="J0" toJunction="J7" end="720" vehsPerHour="26.849866256412827"/>
  <flow id="JF51227" begin="660" fromJunction="J0" toJunction="J6" end="720" vehsPerHour="43.02662206919723"/>
  <flow id="JF51228" begin="660" fromJunction="J0" toJunction="J5" end="720" vehsPerHour="1.1803779820050444"/>
  <flow id="JF51229" begin="660" fromJunction="J0" toJunction="J4" end="720" vehsPerHour="54.15841580921399"/>
  <flow id="JF51230" begin="660" fromJunction="J3" toJunction="J7" end="720" vehsPerHour="20.57244891491846"/>
  <flow id="JF51231" begin="660" fromJunction="J3" toJunction="J6" end="720" vehsPerHour="35.23150401662298"/>
  <flow id="JF51232" begin="660" fromJunction="J3" toJunction="J5" end="720" vehsPerHour="83.79493464428545"/>
  <flow id="JF51233" begin="660" fromJunction="J3" toJunction="J4" end="720" vehsPerHour="44.00481742775976"/>
  <flow id="JF51234" begin="660" fromJunction="J7" toJunction="J6" end="720" vehsPerHour="65.51721406866768"/>
  <flow id="JF51235" begin="660" fromJunction="J7" toJunction="J5" end="720" vehsPerHour="25.668478953954267"/>
  <flow id="JF51236" begin="660" fromJunction="J7" toJunction="J4" end="720" vehsPerHour="58.915789765426446"/>
  <flow id="JF51237" begin="660" fromJunction="J6" toJunction="J7" end="720" vehsPerHour="21.108850486022515"/>
  <flow id="JF51238" begin="660" fromJunction="J6" toJunction="J5" end="720" vehsPerHour="16.252539761237685"/>
  <flow id="JF51239" begin="660" fromJunction="J6" toJunction="J4" end="720" vehsPerHour="54.864891347786404"/>
  <flow id="JF51240" begin="660" fromJunction="J5" toJunction="J7" end="720" vehsPerHour="27.66333193716212"/>
  <flow id="JF51241" begin="660" fromJunction="J5" toJunction="J6" end="720" vehsPerHour="49.707896321795246"/>
  <flow id="JF51242" begin="660" fromJunction="J5" toJunction="J4" end="720" vehsPerHour="39.14405623244627"/>
  <flow id="JF51243" begin="660" fromJunction="J4" toJunction="J7" end="720" vehsPerHour="59.518207506721424"/>
  <flow id="JF51244" begin="660" fromJunction="J4" toJunction="J6" end="720" vehsPerHour="28.662567590764166"/>
  <flow id="JF51245" begin="660" fromJunction="J4" toJunction="J5" end="720" vehsPerHour="8.58054608726204"/>
  <flow id="JF51246" begin="660" fromJunction="J7" toJunction="J0" end="720" vehsPerHour="14.771620434634524"/>
  <flow id="JF51247" begin="660" fromJunction="J7" toJunction="J3" end="720" vehsPerHour="64.6317682663608"/>
  <flow id="JF51248" begin="660" fromJunction="J6" toJunction="J0" end="720" vehsPerHour="46.12878380663576"/>
  <flow id="JF51249" begin="660" fromJunction="J6" toJunction="J3" end="720" vehsPerHour="45.952142852267045"/>
  <flow id="JF51250" begin="660" fromJunction="J5" toJunction="J0" end="720" vehsPerHour="61.530463083752174"/>
  <flow id="JF51251" begin="660" fromJunction="J5" toJunction="J3" end="720" vehsPerHour="68.03271738971286"/>
  <flow id="JF51252" begin="660" fromJunction="J4" toJunction="J0" end="720" vehsPerHour="68.24538693609843"/>
  <flow id="JF51253" begin="660" fromJunction="J4" toJunction="J3" end="720" vehsPerHour="42.49263508333993"/>
  <flow id="JF51254" begin="720" fromJunction="J0" toJunction="J3" end="780" vehsPerHour="212.57359102394858"/>
  <flow id="JF51255" begin="720" fromJunction="J3" toJunction="J0" end="780" vehsPerHour="425.4027489194667"/>
  <flow id="JF51256" begin="720" fromJunction="J0" toJunction="J7" end="780" vehsPerHour="108.33625473715728"/>
  <flow id="JF51257" begin="720" fromJunction="J0" toJunction="J6" end="780" vehsPerHour="45.950427426884396"/>
  <flow id="JF51258" begin="720" fromJunction="J0" toJunction="J5" end="780" vehsPerHour="40.61072853916596"/>
  <flow id="JF51259" begin="720" fromJunction="J0" toJunction="J4" end="780" vehsPerHour="21.680987986409143"/>
  <flow id="JF51260" begin="720" fromJunction="J3" toJunction="J7" end="780" vehsPerHour="2.0628658047045847"/>
  <flow id="JF51261" begin="720" fromJunction="J3" toJunction="J6" end="780" vehsPerHour="51.66048786143875"/>