<?xml version="1.0" encoding="UTF-8"?>
<routes xmlns:xsi="http://www.w3.org/2001/XMLSchema-instance" xsi:noNamespaceSchemaLocation="http://sumo.dlr.de/xsd/routes_file.xsd">
  <flow id="JF70814" begin="0" fromJunction="J0" toJunction="J3" end="60" vehsPerHour="185.16028603161263"/>
  <flow id="JF70815" begin="0" fromJunction="J3" toJunction="J0" end="60" vehsPerHour="454.5064076574501"/>
  <flow id="JF70816" begin="0" fromJunction="J0" toJunction="J7" end="60" vehsPerHour="85.47636628784171"/>
  <flow id="JF70817" begin="0" fromJunction="J0" toJunction="J6" end="60" vehsPerHour="100.79536156488567"/>
  <flow id="JF70818" begin="0" fromJunction="J0" toJunction="J5" end="60" vehsPerHour="131.71401781552015"/>
  <flow id="JF70819" begin="0" fromJunction="J0" toJunction="J4" end="60" vehsPerHour="5.320292769443653"/>
  <flow id="JF70820" begin="0" fromJunction="J3" toJunction="J7" end="60" vehsPerHour="23.613389375390305"/>
  <flow id="JF70821" begin="0" fromJunction="J3" toJunction="J6" end="60" vehsPerHour="87.70770502210351"/>
  <flow id="JF70822" begin="0" fromJunction="J3" toJunction="J5" end="60" vehsPerHour="44.37686350085172"/>
  <flow id="JF70823" begin="0" fromJunction="J3" toJunction="J4" end="60" vehsPerHour="109.3247688204589"/>
  <flow id="JF70824" begin="0" fromJunction="J7" toJunction="J6" end="60" vehsPerHour="25.219962965778247"/>
  <flow id="JF70825" begin="0" fromJunction="J7" toJunction="J5" end="60" vehsPerHour="45.187691665058125"/>
  <flow id="JF70826" begin="0" fromJunction="J7" toJunction="J4" end="60" vehsPerHour="44.241288671199285"/>
  <flow id="JF70827" begin="0" fromJunction="J6" toJunction="J7" end="60" vehsPerHour="8.93802877257197"/>
  <flow id="JF70828" begin="0" fromJunction="J6" toJunction="J5" end="60" vehsPerHour="63.0457057854582"/>
  <flow id="JF70829" begin="0" fromJunction="J6" toJunction="J4" end="60" vehsPerHour="45.68107315085153"/>
  <flow id="JF70830" begin="0" fromJunction="J5" toJunction="J7" end="60" vehsPerHour="23.339410920657162"/>
  <flow id="JF70831" begin="0" fromJunction="J5" toJunction="J6" end="60" vehsPerHour="59.35429277636144"/>
  <flow id="JF70832" begin="0" fromJunction="J5" toJunction="J4" end="60" vehsPerHour="2.409662525242967"/>
  <flow id="JF70833" begin="0" fromJunction="J4" toJunction="J7" end="60" vehsPerHour="55.39246835868121"/>
  <flow id="JF70834" begin="0" fromJunction="J4" toJunction="J6" end="60" vehsPerHour="23.350607715183568"/>
  <flow id="JF70835" begin="0" fromJunction="J4" toJunction="J5" end="60" vehsPerHour="17.104393883543587"/>
  <flow id="JF70836" begin="0" fromJunction="J7" toJunction="J0" end="60" vehsPerHour="37.353879542105986"/>
  <flow id="JF70837" begin="0" fromJunction="J7" toJunction="J3" end="60" vehsPerHour="40.68279726448323"/>
  <flow id="JF70838" begin="0" fromJunction="J6" toJunction="J0" end="60" vehsPerHour="48.96997192772609"/>
  <flow id="JF70839" begin="0" fromJunction="J6" toJunction="J3" end="60" vehsPerHour="28.766219971374934"/>
  <flow id="JF70840" begin="0" fromJunction="J5" toJunction="J0" end="60" vehsPerHour="10.557665589967495"/>
  <flow id="JF70841" begin="0" fromJunction="J5" toJunction="J3" end="60" vehsPerHour="3.621271784483302"/>
  <flow id="JF70842" begin="0" fromJunction="J4" toJunction="J0" end="60" vehsPerHour="48.06894856327389"/>
  <flow id="JF70843" begin="0" fromJunction="J4" toJunction="J3" end="60" vehsPerHour="2.364237428628001"/>
  <flow id="JF70844" begin="60" fromJunction="J0" toJunction="J3" end="120" vehsPerHour="28.20254455291306"/>
  <flow id="JF70845" begin="60" fromJunction="J3" toJunction="J0" end="120" vehsPerHour="134.90643073653536"/>
  <flow id="JF70846" begin="60" fromJunction="J0" toJunction="J7" end="120" vehsPerHour="16.39210937049843"/>
  <flow id="JF70847" begin="60" fromJunction="J0" toJunction="J6" end="120" vehsPerHour="27.393147061858617"/>
  <flow id="JF70848" begin="60" fromJunction="J0" toJunction="J5" end="120" vehsPerHour="91.13463137016096"/>
  <flow id="JF70849" begin="60" fromJunction="J0" toJunction="J4" end="120" vehsPerHour="2.1284610716666124"/>
  <flow id="JF70850" begin="60" fromJunction="J3" toJunction="J7" end="120" vehsPerHour="2.620369485382644"/>
  <flow id="JF70851" begin="60" fromJunction="J3" toJunction="J6" end="120" vehsPerHour="86.76071468236196"/>
  <flow id="JF70852" begin="60" fromJunction="J3" toJunction="J5" end="120" vehsPerHour="2.0657628437412714"/>
  <flow id="JF70853" begin="60" fromJunction="J3" toJunction="J4" end="120" vehsPerHour="36.22255699359141"/>
  <flow id="JF70854" begin="60" fromJunction="J7" toJunction="J6" end="120" vehsPerHour="52.715537598677095"/>
  <flow id="JF70855" begin="60" fromJunction="J7" toJunction="J5" end="120" vehsPerHour="61.41130273765556"/>
  <flow id="JF70856" begin="60" fromJunction="J7" toJunction="J4" end="120" vehsPerHour="55.934219701951946"/>
  <flow id="JF70857" begin="60" fromJunction="J6" toJunction="J7" end="120" vehsPerHour="30.39998366431202"/>
  <flow id="JF70858" begin="60" fromJunction="J6" toJunction="J5" end="120" vehsPerHour="14.843569803797482"/>
  <flow id="JF70859" begin="60" fromJunction="J6" toJunction="J4" end="120" vehsPerHour="18.194308039704964"/>
  <flow id="JF70860" begin="60" fromJunction="J5" toJunction="J7" end="120" vehsPerHour="59.89457906248158"/>
  <flow id="JF70861" begin="60" fromJunction="J5" toJunction="J6" end="120" vehsPerHour="25.104813102596843"/>
  <flow id="JF70862" begin="60" fromJunction="J5" toJunction="J4" end="120" vehsPerHour="60.439882783931985"/>
  <flow id="JF70863" begin="60" fromJunction="J4" toJunction="J7" end="120" vehsPerHour="52.81013007822686"/>
  <flow id="JF70864" begin="60" fromJunction="J4" toJunction="J6" end="120" vehsPerHour="0.4404300425222802"/>
  <flow id="JF70865" begin="60" fromJunction="J4" toJunction="J5" end="120" vehsPerHour="25.76208187000589"/>
  <flow id="JF70866" begin="60" fromJunction="J7" toJunction="J0" end="120" vehsPerHour="56.0751162893556"/>
  <flow id="JF70867" begin="60" fromJunction="J7" toJunction="J3" end="120" vehsPerHour="9.180786188772844"/>
  <flow id="JF70868" begin="60" fromJunction="J6" toJunction="J0" end="120" vehsPerHour="30.928688677107164"/>
  <flow id="JF70869" begin="60" fromJunction="J6" toJunction="J3" end="120" vehsPerHour="37.37393084439552"/>
  <flow id="JF70870" begin="60" fromJunction="J5" toJunction="J0" end="120" vehsPerHour="36.423644114342686"/>
  <flow id="JF70871" begin="60" fromJunction="J5" toJunction="J3" end="120" vehsPerHour="6.284034801740857"/>
  <flow id="JF70872" begin="60" fromJunction="J4" toJunction="J0" end="120" vehsPerHour="0.7990606890612104"/>
  <flow id="JF70873" begin="60" fromJunction="J4" toJunction="J3" end="120" vehsPerHour="48.07615807863875"/>
  <flow id="JF70874" begin="120" fromJunction="J0" toJunction="J3" end="180" vehsPerHour="546.7280127958238"/>
  <flow id="JF70875" begin="120" fromJunction="J3" toJunction="J0" end="180" vehsPerHour="268.11655074404456"/>
  <flow id="JF70876" begin="120" fromJunction="J0" toJunction="J7" end="180" vehsPerHour="33.788899305636534"/>
  <flow id="JF70877" begin="120" fromJunction="J0" toJunction="J6" end="180" vehsPerHour="79.11546773829384"/>
  <flow id="JF70878" begin="120" fromJunction="J0" toJunction="J5" end="180" vehsPerHour="27.963831080919885"/>
  <flow id="JF70879" begin="120" fromJunction="J0" toJunction="J4" end="180" vehsPerHour="62.393719572163086"/>
  <flow id="JF70880" begin="120" fromJunction="J3" toJunction="J7" end="180" vehsPerHour="73.00774753542127"/>
  <flow id="JF70881" begin="120" fromJunction="J3" toJunction="J6" end="180" vehsPerHour="53.106110574691165"/>
  <flow id="JF70882" begin="120" fromJunction="J3" toJunction="J5" end="180" vehsPerHour="3.6024640047562007"/>
  <flow id="JF70883" begin="120" fromJunction="J3" toJunction="J4" end="180" vehsPerHour="69.78486026340347"/>
  <flow id="JF70884" begin="120" fromJunction="J7" toJunction="J6" end="180" vehsPerHour="14.200317257343697"/>
  <flow id="JF70885" begin="120" fromJunction="J7" toJunction="J5" end="180" vehsPerHour="30.795853517547275"/>
  <flow id="JF70886" begin="120" fromJunction="J7" toJunction="J4" end="180" vehsPerHour="9.211326908174186"/>
  <flow id="JF70887" begin="120" fromJunction="J6" toJunction="J7" end="180" vehsPerHour="4.553082406280922"/>
  <flow id="JF70888" begin="120" fromJunction="J6" toJunction="J5" end="180" vehsPerHour="37.274787468105124"/>
  <flow id="JF70889" begin="120" fromJunction="J6" toJunction="J4" end="180" vehsPerHour="67.1223576282108"/>
  <flow id="JF70890" begin="120" fromJunction="J5" toJunction="J7" end="180" vehsPerHour="22.017998964770264"/>
  <flow id="JF70891" begin="120" fromJunction="J5" toJunction="J6" end="180" vehsPerHour="61.26276584116054"/>
  <flow id="JF70892" begin="120" fromJunction="J5" toJunction="J4" end="180" vehsPerHour="4.321928106958951"/>
  <flow id="JF70893" begin="120" fromJunction="J4" toJunction="J7" end="180" vehsPerHour="20.226378429276487"/>
  <flow id="JF70894" begin="120" fromJunction="J4" toJunction="J6" end="180" vehsPerHour="11.56308506061255"/>
  <flow id="JF70895" begin="120" fromJunction="J4" toJunction="J5" end="180" vehsPerHour="52.518734231358216"/>
  <flow id="JF70896" begin="120" fromJunction="J7" toJunction="J0" end="180" vehsPerHour="27.302964854704754"/>
  <flow id="JF70897" begin="120" fromJunction="J7" toJunction="J3" end="180" vehsPerHour="37.653564290743816"/>
  <flow id="JF70898" begin="120" fromJunction="J6" toJunction="J0" end="180" vehsPerHour="51.84397575093432"/>
  <flow id="JF70899" begin="120" fromJunction="J6" toJunction="J3" end="180" vehsPerHour="26.83758534230769"/>
  <flow id="JF70900" begin="120" fromJunction="J5" toJunction="J0" end="180" vehsPerHour="56.02310575477401"/>
  <flow id="JF70901" begin="120" fromJunction="J5" toJunction="J3" end="180" vehsPerHour="3.0213989590277714"/>
  <flow id="JF70902" begin="120" fromJunction="J4" toJunction="J0" end="180" vehsPerHour="39.70965658892245"/>
  <flow id="JF70903" begin="120" fromJunction="J4" toJunction="J3" end="180" vehsPerHour="63.71762233166394"/>
  <flow id="JF70904" begin="180" fromJunction="J0" toJunction="J3" end="240" vehsPerHour="183.6009344273889"/>
  <flow id="JF70905" begin="180" fromJunction="J3" toJunction="J0" end="240" vehsPerHour="318.9271614847879"/>
  <flow id="JF70906" begin="180" fromJunction="J0" toJunction="J7" end="240" vehsPerHour="128.8539995365917"/>
  <flow id="JF70907" begin="180" fromJunction="J0" toJunction="J6" end="240" vehsPerHour="122.26414326249231"/>
  <flow id="JF70908" begin="180" fromJunction="J0" toJunction="J5" end="240" vehsPerHour="62.26815297452726"/>
  <flow id="JF70909" begin="180" fromJunction="J0" toJunction="J4" end="240" vehsPerHour="126.60978063465758"/>
  <flow id="JF70910" begin="180" fromJunction="J3" toJunction="J7" end="240" vehsPerHour="5.772107183181096"/>
  <flow id="JF70911" begin="180" fromJunction="J3" toJunction="J6" end="240" vehsPerHour="5.535307533483876"/>
  <flow id="JF70912" begin="180" fromJunction="J3" toJunction="J5" end="240" vehsPerHour="128.34595061160385"/>
  <flow id="JF70913" begin="180" fromJunction="J3" toJunction="J4" end="240" vehsPerHour="41.2200562499227"/>
  <flow id="JF70914" begin="240" fromJunction="J0" toJunction="J3" end="300" vehsPerHour="495.40715944752833"/>
  <flow id="JF70915" begin="240" fromJunction="J3" toJunction="J0" end="300" vehsPerHour="56.9243930762058"/>
  <flow id="JF70916" begin="240" fromJunction="J0" toJunction="J7" end="300" vehsPerHour="58.7134009341848"/>
  <flow id="JF70917" begin="240" fromJunction="J0" toJunction="J6" end="300" vehsPerHour="89.12919876301434"/>
  <flow id="JF70918" begin="240" fromJunction="J0" toJunction="J5" end="300" vehsPerHour="135.4829158444788"/>
  <flow id="JF70919" begin="240" fromJunction="J0" toJunction="J4" end="300" vehsPerHour="65.36082195859498"/>
  <flow id="JF70920" begin="240" fromJunction="J3" toJunction="J7" end="300" vehsPerHour="70.36245671852393"/>
  <flow id="JF70921" begin="240" fromJunction="J3" toJunction="J6" end="300" vehsPerHour="112.67034100179468"/>
  <flow id="JF70922" begin="240" fromJunction="J3" toJunction="J5" end="300" vehsPerHour="61.647613383527066"/>
  <flow id="JF70923" begin="240" fromJunction="J3" toJunction="J4" end="300" vehsPerHour="108.49633091003675"/>
  <flow id="JF70924" begin="240" fromJunction="J7" toJunction="J6" end="300" vehsPerHour="34.58564719932354"/>
  <flow id="JF70925" begin="240" fromJunction="J7" toJunction="J5" end="300" vehsPerHour="29.203832575301625"/>
  <flow id="JF70926" begin="240" fromJunction="J7" toJunction="J4" end="300" vehsPerHour="64.11838379693629"/>
  <flow id="JF70927" begin="240" fromJunction="J6" toJunction="J7" end="300" vehsPerHour="50.39134088818255"/>
  <flow id="JF70928" begin="240" fromJunction="J6" toJunction="J5" end="300" vehsPerHour="29.94794104066023"/>
  <flow id="JF70929" begin="240" fromJunction="J6" toJunction="J4" end="300" vehsPerHour="23.22133565052816"/>
  <flow id="JF70930" begin="240" fromJunction="J5" toJunction="J7" end="300" vehsPerHour="65.5754316948437"/>
  <flow id="JF70931" begin="240" fromJunction="J5" toJunction="J6" end="300" vehsPerHour="9.491908999125931"/>
  <flow id="JF70932" begin="240" fromJunction="J5" toJunction="J4" end="300" vehsPerHour="24.155498762485408"/>
  <flow id="JF70933" begin="240" fromJunction="J4" toJunction="J7" end="300" vehsPerHour="12.395925023432705"/>
  <flow id="JF70934" begin="240" fromJunction="J4" toJunction="J6" end="300" vehsPerHour="40.68177840935917"/>
  <flow id="JF70935" begin="240" fromJunction="J4" toJunction="J5" end="300" vehsPerHour="51.31355389486018"/>
  <flow id="JF70936" begin="240" fromJunction="J7" toJunction="J0" end="300" vehsPerHour="58.36135092412194"/>
  <flow id="JF70937" begin="240" fromJunction="J7" toJunction="J3" end="300" vehsPerHour="24.33841658479606"/>
  <flow id="JF70938" begin="240" fromJunction="J6" toJunction="J0" end="300" vehsPerHour="38.60961847780603"/>
  <flow id="JF70939" begin="240" fromJunction="J6" toJunction="J3" end="300" vehsPerHour="65.30578247580814"/>
  <flow id="JF70940" begin="240" fromJunction="J5" toJunction="J0" end="300" vehsPerHour="1.2075350472981672"/>
  <flow id="JF70941" begin="240" fromJunction="J5" toJunction="J3" end="300" vehsPerHour="12.324353871459545"/>
  <flow id="JF70942" begin="240" fromJunction="J4" toJunction="J0" end="300" vehsPerHour="17.01706766370964"/>
  <flow id="JF70943" begin="240" fromJunction="J4" toJunction="J3" end="300" vehsPerHour="26.00423063955016"/>
  <flow id="JF70944" begin="300" fromJunction="J0" toJunction="J3" end="360" vehsPerHour="180.3559703439161"/>
  <flow id="JF70945" begin="300" fromJunction="J3" toJunction="J0" end="360" vehsPerHour="446.600911783706"/>
  <flow id="JF70946" begin="300" fromJunction="J0" toJunction="J7" end="360" vehsPerHour="86.05644301167803"/>
  <flow id="JF70947" begin="300" fromJunction="J0" toJunction="J6" end="360" vehsPerHour="10.188047262292038"/>
  <flow id="JF70948" begin="300" fromJunction="J0" toJunction="J5" end="360" vehsPerHour="7.687354893267519"/>
  <flow id="JF70949" begin="300" fromJunction="J0" toJunction="J4" end="360" vehsPerHour="50.06898157996598"/>
  <flow id="JF70950" begin="300" fromJunction="J3" toJunction="J7" end="360" vehsPerHour="57.5633068740146"/>
  <flow id="JF70951" begin="300" fromJunction="J3" toJunction="J6" end="360" vehsPerHour="1.7158362817459962"/>
  <flow id="JF70952" begin="300" fromJunction="J3" toJunction="J5" end="360" vehsPerHour="97.76995276099898"/>
  <flow id="JF70953" begin="300" fromJunction="J3" toJunction="J4" end="360" vehsPerHour="15.495578455647221"/>
  <flow id="JF70954" begin="300" fromJunction="J7" toJunction="J6" end="360" vehsPerHour="66.9041282602265"/>
  <flow id="JF70955" begin="300" fromJunction="J7" toJunction="J5" end="360" vehsPerHour="2.649624155659008"/>
  <flow id="JF70956" begin="300" fromJunction="J7" toJunction="J4" end="360" vehsPerHour="15.528457672939972"/>
  <flow id="JF70957" begin="300" fromJunction="J6" toJunction="J7" end="360" vehsPerHour="47.114837444456526"/>
  <flow id="JF70958" begin="300" fromJunction="J6" toJunction="J5" end="360" vehsPerHour="48.50935878140429"/>
  <flow id="JF70959" begin="300" fromJunction="J6" toJunction="J4" end="360" vehsPerHour="58.534832455193296"/>
  <flow id="JF70960" begin="300" fromJunction="J5" toJunction="J7" end="360" vehsPerHour="66.54890688980784"/>
  <flow id="JF70961" begin="300" fromJunction="J5" toJunction="J6" end="360" vehsPerHour="10.03054539450498"/>
  <flow id="JF70962" begin="300" fromJunction="J5" toJunction="J4" end="360" vehsPerHour="62.74656868641322"/>
  <flow id="JF70963" begin="300" fromJunction="J4" toJunction="J7" end="360" vehsPerHour="42.719524882844034"/>
  <flow id="JF70964" begin="300" fromJunction="J4" toJunction="J6" end="360" vehsPerHour="2.7774594847890985"/>
  <flow id="JF70965" begin="300" fromJunction="J4" toJunction="J5" end="360" vehsPerHour="50.82537783348827"/>
  <flow id="JF70966" begin="300" fromJunction="J7" toJunction="J0" end="360" vehsPerHour="15.781033952443387"/>
  <flow id="JF70967" begin="300" fromJunction="J7" toJunction="J3" end="360" vehsPerHour="20.696341292221085"/>
  <flow id="JF70968" begin="300" fromJunction="J6" toJunction="J0" end="360" vehsPerHour="23.41329676918418"/>
  <flow id="JF70969" begin="300" fromJunction="J6" toJunction="J3" end="360" vehsPerHour="52.38456369937724"/>
  <flow id="JF70970" begin="300" fromJunction="J5" toJunction="J0" end="360" vehsPerHour="63.73779932575679"/>
  <flow id="JF70971" begin="300" fromJunction="J5" toJunction="J3" end="360" vehsPerHour="8.544558370168705"/>
  <flow id="JF70972" begin="300" fromJunction="J4" toJunction="J0" end="360" vehsPerHour="1.348168008653601"/>
  <flow id="JF70973" begin="300" fromJunction="J4" toJunction="J3" end="360" vehsPerHour="30.77028406074694"/>
  <flow id="JF70974" begin="360" fromJunction="J0" toJunction="J3" end="420" vehsPerHour="408.6496975895303"/>
  <flow id="JF70975" begin="360" fromJunction="J3" toJunction="J0" end="420" vehsPerHour="531.8167943402384"/>
  <flow id="JF70976" begin="360" fromJunction="J0" toJunction="J7" end="420" vehsPerHour="133.6197665165709"/>
  <flow id="JF70977" begin="360" fromJunction="J0" toJunction="J6" end="420" vehsPerHour="20.478824508439168"/>
  <flow id="JF70978" begin="360" fromJunction="J0" toJunction="J5" end="420" vehsPerHour="101.71900638918392"/>
  <flow id="JF70979" begin="360" fromJunction="J0" toJunction="J4" end="420" vehsPerHour="70.51520365285202"/>
  <flow id="JF70980" begin="360" fromJunction="J3" toJunction="J7" end="420" vehsPerHour="28.843476243670406"/>
  <flow id="JF70981" begin="360" fromJunction="J3" toJunction="J6" end="420" vehsPerHour="23.51012840698855"/>
  <flow id="JF70982" begin="360" fromJunction="J3" toJunction="J5" end="420" vehsPerHour="45.530086068755644"/>
  <flow id="JF70983" begin="360" fromJunction="J3" toJunction="J4" end="420" vehsPerHour="132.41626686992544"/>
  <flow id="JF70984" begin="360" fromJunction="J7" toJunction="J6" end="420" vehsPerHour="9.532211599973422"/>
  <flow id="JF70985" begin="360" fromJunction="J7" toJunction="J5" end="420" vehsPerHour="34.58362758143181"/>
  <flow id="JF70986" begin="360" fromJunction="J7" toJunction="J4" end="420" vehsPerHour="49.74928227544128"/>
  <flow id="JF70987" begin="360" fromJunction="J6" toJunction="J7" end="420" vehsPerHour="40.33671080872471"/>
  <flow id="JF70988" begin="360" fromJunction="J6" toJunction="J5" end="420" vehsPerHour="54.87161243253285"/>
  <flow id="JF70989" begin="360" fromJunction="J6" toJunction="J4" end="420" vehsPerHour="67.84893873881306"/>
  <flow id="JF70990" begin="360" fromJunction="J5" toJunction="J7" end="420" vehsPerHour="20.84209454905442"/>
  <flow id="JF70991" begin="360" fromJunction="J5" toJunction="J6" end="420" vehsPerHour="24.605611901014424"/>
  <flow id="JF70992" begin="360" fromJunction="J5" toJunction="J4" end="420" vehsPerHour="48.084172492655476"/>
  <flow id="JF70993" begin="360" fromJunction="J4" toJunction="J7" end="420" vehsPerHour="38.26191405172899"/>
  <flow id="JF70994" begin="360" fromJunction="J4" toJunction="J6" end="420" vehsPerHour="64.88779258150716"/>
  <flow id="JF70995" begin="360" fromJunction="J4" toJunction="J5" end="420" vehsPerHour="35.09186929054875"/>
  <flow id="JF70996" begin="360" fromJunction="J7" toJunction="J0" end="420" vehsPerHour="65.34586921377993"/>
  <flow id="JF70997" begin="360" fromJunction="J7" toJunction="J3" end="420" vehsPerHour="22.819675525123714"/>
  <flow id="JF70998" begin="360" fromJunction="J6" toJunction="J0" end="420" vehsPerHour="10.792909223890716"/>
  <flow id="JF70999" begin="360" fromJunction="J6" toJunction="J3" end="420" vehsPerHour="59.12456866125622"/>
  <flow id="JF71000" begin="360" fromJunction="J5" toJunction="J0" end="420" vehsPerHour="16.193309056695544"/>
  <flow id="JF71001" begin="360" fromJunction="J5" toJunction="J3" end="420" vehsPerHour="62.63721452786103"/>
  <flow id="JF71002" begin="360" fromJunction="J4" toJunction="J0" end="420" vehsPerHour="61.08447343757005"/>
  <flow id="JF71003" begin="360" fromJunction="J4" toJunction="J3" end="420" vehsPerHour="27.747679855097864"/>
  <flow id="JF71004" begin="420" fromJunction="J0" toJunction="J3" end="480" vehsPerHour="371.7558437404985"/>
  <flow id="JF71005" begin="420" fromJunction="J3" toJunction="J0" end="480" vehsPerHour="64.06154484287764"/>
  <flow id="JF71006" begin="420" fromJunction="J0" toJunction="J7" end="480" vehsPerHour="1.962233367214196"/>
  <flow id="JF71007" begin="420" fromJunction="J0" toJunction="J6" end="480" vehsPerHour="7.8069264123818725"/>
  <flow id="JF71008" begin="420" fromJunction="J0" toJunction="J5" end="480" vehsPerHour="71.20462459083912"/>
  <flow id="JF71009" begin="420" fromJunction="J0" toJunction="J4" end="480" vehsPerHour="37.11004907407887"/>
  <flow id="JF71010" begin="420" fromJunction="J3" toJunction="J7" end="480" vehsPerHour="58.37792160666792"/>
  <flow id="JF71011" begin="420" fromJunction="J3" toJunction="J6" end="480" vehsPerHour="119.23803564964867"/>
  <flow id="JF71012" begin="420" fromJunction="J3" toJunction="J5" end="480" vehsPerHour="78.38219317434282"/>
  <flow id="JF71013" begin="420" fromJunction="J3" toJunction="J4" end="480" vehsPerHour="9.495149432169834"/>
  <flow id="JF71014" begin="420" fromJunction="J7" toJunction="J6" end="480" vehsPerHour="24.353796746372396"/>
  <flow id="JF71015" begin="420" fromJunction="J7" toJunction="J5" end="480" vehsPerHour="14.29505733967952"/>
  <flow id="JF71016" begin="420" fromJunction="J7" toJunction="J4" end="480" vehsPerHour="20.921378359710424"/>
  <flow id="JF71017" begin="420" fromJunction="J6" toJunction="J7" end="480" vehsPerHour="1.7009398054825604"/>
  <flow id="JF71018" begin="420" fromJunction="J6" toJunction="J5" end="480" vehsPerHour="38.82084422980143"/>
  <flow id="JF71019" begin="420" fromJunction="J6" toJunction="J4" end="480" vehsPerHour="35.825392030850914"/>
  <flow id="JF71020" begin="420" fromJunction="J5" toJunction="J7" end="480" vehsPerHour="66.13484798259839"/>
  <flow id="JF71021" begin="420" fromJunction="J5" toJunction="J6" end="480" vehsPerHour="62.93075493676438"/>
  <flow id="JF71022" begin="420" fromJunction="J5" toJunction="J4" end="480" vehsPerHour="15.61174547580188"/>
  <flow id="JF71023" begin="420" fromJunction="J4" toJunction="J7" end="480" vehsPerHour="29.808650300701522"/>
  <flow id="JF71024" begin="420" fromJunction="J4" toJunction="J6" end="480" vehsPerHour="65.71912077310645"/>
  <flow id="JF71025" begin="420" fromJunction="J4" toJunction="J5" end="480" vehsPerHour="15.556267031221873"/>
  <flow id="JF71026" begin="420" fromJunction="J7" toJunction="J0" end="480" vehsPerHour="65.45760488094916"/>
  <flow id="JF71027" begin="420" fromJunction="J7" toJunction="J3" end="480" vehsPerHour="14.602450517307695"/>
  <flow id="JF71028" begin="420" fromJunction="J6" toJunction="J0" end="480" vehsPerHour="20.6760616137442"/>
  <flow id="JF71029" begin="420" fromJunction="J6" toJunction="J3" end="480" vehsPerHour="33.23764383325378"/>
  <flow id="JF71030" begin="420" fromJunction="J5" toJunction="J0" end="480" vehsPerHour="21.822777590375217"/>
  <flow id="JF71031" begin="420" fromJunction="J5" toJunction="J3" end="480" vehsPerHour="57.89307428762716"/>
  <flow id="JF71032" begin="420" fromJunction="J4" toJunction="J0" end="480" vehsPerHour="11.742172862075044"/>
  <flow id="JF71033" begin="420" fromJunction="J4" toJunction="J3" end="480" vehsPerHour="20.60328495173328"/>
  <flow id="JF71034" begin="480" fromJunction="J0" toJunction="J3" end="540" vehsPerHour="40.956374194098636"/>
  <flow id="JF71035" begin="480" fromJunction="J3" toJunction="J0" end="540" vehsPerHour="121.87369833855612"/>
  <flow id="JF71036" begin="480" fromJunction="J0" toJunction="J7" end="540" vehsPerHour="85.02967488587947"/>
  <flow id="JF71037" begin="480" fromJunction="J0" toJunction="J6" end="540" vehsPerHour="8.340138590665603"/>
  <flow id="JF71038" begin="480" fromJunction="J0" toJunction="J5" end="540" vehsPerHour="75.65027034059403"/>
  <flow id="JF71039" begin="480" fromJunction="J0" toJunction="J4" end="540" vehsPerHour="93.49972970870834"/>
  <flow id="JF71040" begin="480" fromJunction="J3" toJunction="J7" end="540" vehsPerHour="111.11451185905878"/>
  <flow id="JF71041" begin="480" fromJunction="J3" toJunction="J6" end="540" vehsPerHour="48.9220232398378"/>
  <flow id="JF71042" begin="480" fromJunction="J3" toJunction="J5" end="540" vehsPerHour="78.32962000461673"/>
  <flow id="JF71043" begin="480" fromJunction="J3" toJunction="J4" end="540" vehsPerHour="123.12496556136003"/>
  <flow id="JF71044" begin="540" fromJunction="J0" toJunction="J3" end="600" vehsPerHour="257.88282294185035"/>
  <flow id="JF71045" begin="540" fromJunction="J3" toJunction="J0" end="600" vehsPerHour="39.44267086258078"/>
  <flow id="JF71046" begin="540" fromJunction="J0" toJunction="J7" end="600" vehsPerHour="24.941093150429165"/>
  <flow id="JF71047" begin="540" fromJunction="J0" toJunction="J6" end="600" vehsPerHour="9.487676582648085"/>
  <flow id="JF71048" begin="540" fromJunction="J0" toJunction="J5" end="600" vehsPerHour="22.405979451716924"/>
  <flow id="JF71049" begin="540" fromJunction="J0" toJunction="J4" end="600" vehsPerHour="59.102498407863905"/>
  <flow id="JF71050" begin="540" fromJunction="J3" toJunction="J7" end="600" vehsPerHour="75.57953382580904"/>
  <flow id="JF71051" begin="540" fromJunction="J3" toJunction="J6" end="600" vehsPerHour="124.55697566872507"/>
  <flow id="JF71052" begin="540" fromJunction="J3" toJunction="J5" end="600" vehsPerHour="87.4489955715788"/>
  <flow id="JF71053" begin="540" fromJunction="J3" toJunction="J4" end="600" vehsPerHour="27.419277725489426"/>
  <flow id="JF71054" begin="600" fromJunction="J0" toJunction="J3" end="660" vehsPerHour="447.7379267613342"/>
  <flow id="JF71055" begin="600" fromJunction="J3" toJunction="J0" end="660" vehsPerHour="202.22398361411103"/>
  <flow id="JF71056" begin="600" fromJunction="J0" toJunction="J7" end="660" vehsPerHour="123.10421249023982"/>
  <flow id="JF71057" begin="600" fromJunction="J0" toJunction="J6" end="660" vehsPerHour="81.96755679276714"/>
  <flow id="JF71058" begin="600" fromJunction="J0" toJunction="J5" end="660" vehsPerHour="102.60174435155434"/>
  <flow id="JF71059" begin="600" fromJunction="J0" toJunction="J4" end="660" vehsPerHour="102.86661580701862"/>
  <flow id="JF71060" begin="600" fromJunction="J3" toJunction="J7" end="660" vehsPerHour="130.9021433151401"/>
  <flow id="JF71061" begin="600" fromJunction="J3" toJunction="J6" end="660" vehsPerHour="59.385675184717556"/>
  <flow id="JF71062" begin="600" fromJunction="J3" toJunction="J5" end="660" vehsPerHour="4.439674651903355"/>
  <flow id="JF71063" begin="600" fromJunction="J3" toJunction="J4" end="660" vehsPerHour="116.41250271067157"/>
  <flow id="JF71064" begin="660" fromJunction="J0" toJunction="J3" end="720" vehsPerHour="50.74232857022325"/>
  <flow id="JF71065" begin="660" fromJunction="J3" toJunction="J0" end="720" vehsPerHour="76.38660093038335"/>
  <flow id="JF71066" begin="660" fromJunction="J0" toJunction="J7" end="720" vehsPerHour="57.003660668318254"/>
  <flow id="JF71067" begin="660" fromJunction="J0" toJunction="J6" end="720" vehsPerHour="95.6593906100837"/>
  <flow id="JF71068" begin="660" fromJunction="J0" toJunction="J5" end="720" vehsPerHour="121.26768630619868"/>
  <flow id="JF71069" begin="660" fromJunction="J0" toJunction="J4" end="720" vehsPerHour="0.2172624702032636"/>
  <flow id="JF71070" begin="660" fromJunction="J3" toJunction="J7" end="720" vehsPerHour="128.07789165478374"/>
  <flow id="JF71071" begin="660" fromJunction="J3" toJunction="J6" end="720" vehsPerHour="123.30280157260788"/>
  <flow id="JF71072" begin="660" fromJunction="J3" toJunction="J5" end="720" vehsPerHour="124.39223070036996"/>
  <flow id="JF71073" begin="660" fromJunction="J3" toJunction="J4" end="720" vehsPerHour="55.220934384726334"/>
  <flow id="JF71074" begin="660" fromJunction="J7" toJunction="J6" end="720" vehsPerHour="20.870926631382066"/>
  <flow id="JF71075" begin="660" fromJunction="J7" toJunction="J5" end="720" vehsPerHour="64.88521732738236"/>
  <flow id="JF71076" begin="660" fromJunction="J7" toJunction="J4" end="720" vehsPerHour="27.764254088719664"/>
  <flow id="JF71077" begin="660" fromJunction="J6" toJunction="J7" end="720" vehsPerHour="18.37881691877931"/>
  <flow id="JF71078" begin="660" fromJunction="J6" toJunction="J5" end="720" vehsPerHour="45.18195602628893"/>
  <flow id="JF71079" begin="660" fromJunction="J6" toJunction="J4" end="720" vehsPerHour="19.45189372267409"/>
  <flow id="JF71080" begin="660" fromJunction="J5" toJunction="J7" end="720" vehsPerHour="42.816548881296576"/>
  <flow id="JF71081" begin="660" fromJunction="J5" toJunction="J6" end="720" vehsPerHour="4.907630836450828"/>