<?xml version="1.0" encoding="UTF-8"?>
<routes xmlns:xsi="http://www.w3.org/2001/XMLSchema-instance" xsi:noNamespaceSchemaLocation="http://sumo.dlr.de/xsd/routes_file.xsd">
  <flow id="JF66894" begin="0" fromJunction="J0" toJunction="J3" end="60" vehsPerHour="388.4314570907272"/>
  <flow id="JF66895" begin="0" fromJunction="J3" toJunction="J0" end="60" vehsPerHour="23.58658605547624"/>
  <flow id="JF66896" begin="0" fromJunction="J0" toJunction="J7" end="60" vehsPerHour="23.41154868272945"/>
  <flow id="JF66897" begin="0" fromJunction="J0" toJunction="J6" end="60" vehsPerHour="114.09927642131991"/>
  <flow id="JF66898" begin="0" fromJunction="J0" toJunction="J5" end="60" vehsPerHour="117.08082284632508"/>
  <flow id="JF66899" begin="0" fromJunction="J0" toJunction="J4" end="60" vehsPerHour="4.089273044025858"/>
  <flow id="JF66900" begin="0" fromJunction="J3" toJunction="J7" end="60" vehsPerHour="105.7106293781482"/>
  <flow id="JF66901" begin="0" fromJunction="J3" toJunction="J6" end="60" vehsPerHour="72.31744162808745"/>
  <flow id="JF66902" begin="0" fromJunction="J3" toJunction="J5" end="60" vehsPerHour="109.68946529802221"/>
  <flow id="JF66903" begin="0" fromJunction="J3" toJunction="J4" end="60" vehsPerHour="104.9249732189305"/>
  <flow id="JF66904" begin="0" fromJunction="J7" toJunction="J6" end="60" vehsPerHour="51.02521992187354"/>
  <flow id="JF66905" begin="0" fromJunction="J7" toJunction="J5" end="60" vehsPerHour="58.92364043565713"/>
  <flow id="JF66906" begin="0" fromJunction="J7" toJunction="J4" end="60" vehsPerHour="20.965672966123712"/>
  <flow id="JF66907" begin="0" fromJunction="J6" toJunction="J7" end="60" vehsPerHour="63.08989492806715"/>
  <flow id="JF66908" begin="0" fromJunction="J6" toJunction="J5" end="60" vehsPerHour="40.83868994625633"/>
  <flow id="JF66909" begin="0" fromJunction="J6" toJunction="J4" end="60" vehsPerHour="49.6922346738126"/>
  <flow id="JF66910" begin="0" fromJunction="J5" toJunction="J7" end="60" vehsPerHour="62.4947488097147"/>
  <flow id="JF66911" begin="0" fromJunction="J5" toJunction="J6" end="60" vehsPerHour="18.285572115517375"/>
  <flow id="JF66912" begin="0" fromJunction="J5" toJunction="J4" end="60" vehsPerHour="28.36189548729274"/>
  <flow id="JF66913" begin="0" fromJunction="J4" toJunction="J7" end="60" vehsPerHour="35.60183429029497"/>
  <flow id="JF66914" begin="0" fromJunction="J4" toJunction="J6" end="60" vehsPerHour="44.62379055523678"/>
  <flow id="JF66915" begin="0" fromJunction="J4" toJunction="J5" end="60" vehsPerHour="59.752904694545165"/>
  <flow id="JF66916" begin="0" fromJunction="J7" toJunction="J0" end="60" vehsPerHour="48.55379335389365"/>
  <flow id="JF66917" begin="0" fromJunction="J7" toJunction="J3" end="60" vehsPerHour="65.82235143482892"/>
  <flow id="JF66918" begin="0" fromJunction="J6" toJunction="J0" end="60" vehsPerHour="24.335643776490915"/>
  <flow id="JF66919" begin="0" fromJunction="J6" toJunction="J3" end="60" vehsPerHour="15.307886328662764"/>
  <flow id="JF66920" begin="0" fromJunction="J5" toJunction="J0" end="60" vehsPerHour="37.5839995730306"/>
  <flow id="JF66921" begin="0" fromJunction="J5" toJunction="J3" end="60" vehsPerHour="2.5450967146818044"/>
  <flow id="JF66922" begin="0" fromJunction="J4" toJunction="J0" end="60" vehsPerHour="58.94026177600784"/>
  <flow id="JF66923" begin="0" fromJunction="J4" toJunction="J3" end="60" vehsPerHour="12.082858033727707"/>
  <flow id="JF66924" begin="60" fromJunction="J0" toJunction="J3" end="120" vehsPerHour="95.6393052965637"/>
  <flow id="JF66925" begin="60" fromJunction="J3" toJunction="J0" end="120" vehsPerHour="335.99454078924913"/>
  <flow id="JF66926" begin="60" fromJunction="J0" toJunction="J7" end="120" vehsPerHour="58.01266458937926"/>
  <flow id="JF66927" begin="60" fromJunction="J0" toJunction="J6" end="120" vehsPerHour="127.61684383863421"/>
  <flow id="JF66928" begin="60" fromJunction="J0" toJunction="J5" end="120" vehsPerHour="1.2552558904102358"/>
  <flow id="JF66929" begin="60" fromJunction="J0" toJunction="J4" end="120" vehsPerHour="72.98229941495781"/>
  <flow id="JF66930" begin="60" fromJunction="J3" toJunction="J7" end="120" vehsPerHour="27.349458681274925"/>
  <flow id="JF66931" begin="60" fromJunction="J3" toJunction="J6" end="120" vehsPerHour="73.75386931305992"/>
  <flow id="JF66932" begin="60" fromJunction="J3" toJunction="J5" end="120" vehsPerHour="62.76657981170252"/>
  <flow id="JF66933" begin="60" fromJunction="J3" toJunction="J4" end="120" vehsPerHour="8.838424990825688"/>
  <flow id="JF66934" begin="120" fromJunction="J0" toJunction="J3" end="180" vehsPerHour="419.61404597273156"/>
  <flow id="JF66935" begin="120" fromJunction="J3" toJunction="J0" end="180" vehsPerHour="349.9035207464277"/>
  <flow id="JF66936" begin="120" fromJunction="J0" toJunction="J7" end="180" vehsPerHour="23.499197336686166"/>
  <flow id="JF66937" begin="120" fromJunction="J0" toJunction="J6" end="180" vehsPerHour="55.01975259374386"/>
  <flow id="JF66938" begin="120" fromJunction="J0" toJunction="J5" end="180" vehsPerHour="133.14821314030905"/>
  <flow id="JF66939" begin="120" fromJunction="J0" toJunction="J4" end="180" vehsPerHour="44.95692183030875"/>
  <flow id="JF66940" begin="120" fromJunction="J3" toJunction="J7" end="180" vehsPerHour="61.379250151965984"/>
  <flow id="JF66941" begin="120" fromJunction="J3" toJunction="J6" end="180" vehsPerHour="107.39329795128279"/>
  <flow id="JF66942" begin="120" fromJunction="J3" toJunction="J5" end="180" vehsPerHour="124.6916624837038"/>
  <flow id="JF66943" begin="120" fromJunction="J3" toJunction="J4" end="180" vehsPerHour="74.33634412008882"/>
  <flow id="JF66944" begin="180" fromJunction="J0" toJunction="J3" end="240" vehsPerHour="152.42288850430126"/>
  <flow id="JF66945" begin="180" fromJunction="J3" toJunction="J0" end="240" vehsPerHour="228.16168469947888"/>
  <flow id="JF66946" begin="180" fromJunction="J0" toJunction="J7" end="240" vehsPerHour="17.240089467690304"/>
  <flow id="JF66947" begin="180" fromJunction="J0" toJunction="J6" end="240" vehsPerHour="89.01066163600524"/>
  <flow id="JF66948" begin="180" fromJunction="J0" toJunction="J5" end="240" vehsPerHour="116.7544957947151"/>
  <flow id="JF66949" begin="180" fromJunction="J0" toJunction="J4" end="240" vehsPerHour="31.916879599369175"/>
  <flow id="JF66950" begin="180" fromJunction="J3" toJunction="J7" end="240" vehsPerHour="117.20705375543146"/>
  <flow id="JF66951" begin="180" fromJunction="J3" toJunction="J6" end="240" vehsPerHour="47.97566214766611"/>
  <flow id="JF66952" begin="180" fromJunction="J3" toJunction="J5" end="240" vehsPerHour="64.82957236381468"/>
  <flow id="JF66953" begin="180" fromJunction="J3" toJunction="J4" end="240" vehsPerHour="76.92485086714687"/>
  <flow id="JF66954" begin="180" fromJunction="J7" toJunction="J6" end="240" vehsPerHour="23.477430610729694"/>
  <flow id="JF66955" begin="180" fromJunction="J7" toJunction="J5" end="240" vehsPerHour="30.96069873900453"/>
  <flow id="JF66956" begin="180" fromJunction="J7" toJunction="J4" end="240" vehsPerHour="25.14303658232761"/>
  <flow id="JF66957" begin="180" fromJunction="J6" toJunction="J7" end="240" vehsPerHour="33.704426120920594"/>
  <flow id="JF66958" begin="180" fromJunction="J6" toJunction="J5" end="240" vehsPerHour="59.405440462095925"/>
  <flow id="JF66959" begin="180" fromJunction="J6" toJunction="J4" end="240" vehsPerHour="37.421126142634435"/>
  <flow id="JF66960" begin="180" fromJunction="J5" toJunction="J7" end="240" vehsPerHour="68.004341254168"/>
  <flow id="JF66961" begin="180" fromJunction="J5" toJunction="J6" end="240" vehsPerHour="39.50448555135038"/>
  <flow id="JF66962" begin="180" fromJunction="J5" toJunction="J4" end="240" vehsPerHour="21.64772468663791"/>
  <flow id="JF66963" begin="180" fromJunction="J4" toJunction="J7" end="240" vehsPerHour="0.11376365811829621"/>
  <flow id="JF66964" begin="180" fromJunction="J4" toJunction="J6" end="240" vehsPerHour="0.7407682183476344"/>
  <flow id="JF66965" begin="180" fromJunction="J4" toJunction="J5" end="240" vehsPerHour="48.65337685888309"/>
  <flow id="JF66966" begin="180" fromJunction="J7" toJunction="J0" end="240" vehsPerHour="5.797582183265325"/>
  <flow id="JF66967" begin="180" fromJunction="J7" toJunction="J3" end="240" vehsPerHour="65.3990648800906"/>
  <flow id="JF66968" begin="180" fromJunction="J6" toJunction="J0" end="240" vehsPerHour="23.17978699487226"/>
  <flow id="JF66969" begin="180" fromJunction="J6" toJunction="J3" end="240" vehsPerHour="28.487239814196485"/>
  <flow id="JF66970" begin="180" fromJunction="J5" toJunction="J0" end="240" vehsPerHour="1.4970114038889855"/>
  <flow id="JF66971" begin="180" fromJunction="J5" toJunction="J3" end="240" vehsPerHour="60.35848410262054"/>
  <flow id="JF66972" begin="180" fromJunction="J4" toJunction="J0" end="240" vehsPerHour="1.0125940519641339"/>
  <flow id="JF66973" begin="180" fromJunction="J4" toJunction="J3" end="240" vehsPerHour="1.9028717407166547"/>
  <flow id="JF66974" begin="240" fromJunction="J0" toJunction="J3" end="300" vehsPerHour="70.25236792890038"/>
  <flow id="JF66975" begin="240" fromJunction="J3" toJunction="J0" end="300" vehsPerHour="249.42221808065148"/>
  <flow id="JF66976" begin="240" fromJunction="J0" toJunction="J7" end="300" vehsPerHour="96.9549743378458"/>
  <flow id="JF66977" begin="240" fromJunction="J0" toJunction="J6" end="300" vehsPerHour="131.430437444292"/>
  <flow id="JF66978" begin="240" fromJunction="J0" toJunction="J5" end="300" vehsPerHour="72.21976845334618"/>
  <flow id="JF66979" begin="240" fromJunction="J0" toJunction="J4" end="300" vehsPerHour="0.4963701744534341"/>
  <flow id="JF66980" begin="240" fromJunction="J3" toJunction="J7" end="300" vehsPerHour="83.36131121227938"/>
  <flow id="JF66981" begin="240" fromJunction="J3" toJunction="J6" end="300" vehsPerHour="94.89788777981119"/>
  <flow id="JF66982" begin="240" fromJunction="J3" toJunction="J5" end="300" vehsPerHour="128.1488819325847"/>
  <flow id="JF66983" begin="240" fromJunction="J3" toJunction="J4" end="300" vehsPerHour="84.16236012786067"/>
  <flow id="JF66984" begin="240" fromJunction="J7" toJunction="J6" end="300" vehsPerHour="44.583188743129114"/>
  <flow id="JF66985" begin="240" fromJunction="J7" toJunction="J5" end="300" vehsPerHour="53.385042276028976"/>
  <flow id="JF66986" begin="240" fromJunction="J7" toJunction="J4" end="300" vehsPerHour="46.59444745776846"/>
  <flow id="JF66987" begin="240" fromJunction="J6" toJunction="J7" end="300" vehsPerHour="5.1465776232045854"/>
  <flow id="JF66988" begin="240" fromJunction="J6" toJunction="J5" end="300" vehsPerHour="33.095990982488196"/>
  <flow id="JF66989" begin="240" fromJunction="J6" toJunction="J4" end="300" vehsPerHour="13.98978213906854"/>
  <flow id="JF66990" begin="240" fromJunction="J5" toJunction="J7" end="300" vehsPerHour="49.56007915871022"/>
  <flow id="JF66991" begin="240" fromJunction="J5" toJunction="J6" end="300" vehsPerHour="56.159595952773884"/>
  <flow id="JF66992" begin="240" fromJunction="J5" toJunction="J4" end="300" vehsPerHour="45.86595654352263"/>
  <flow id="JF66993" begin="240" fromJunction="J4" toJunction="J7" end="300" vehsPerHour="7.5327523610019265"/>
  <flow id="JF66994" begin="240" fromJunction="J4" toJunction="J6" end="300" vehsPerHour="15.370256576799958"/>
  <flow id="JF66995" begin="240" fromJunction="J4" toJunction="J5" end="300" vehsPerHour="37.351205349485234"/>
  <flow id="JF66996" begin="240" fromJunction="J7" toJunction="J0" end="300" vehsPerHour="66.17133605823848"/>
  <flow id="JF66997" begin="240" fromJunction="J7" toJunction="J3" end="300" vehsPerHour="59.06679171723137"/>
  <flow id="JF66998" begin="240" fromJunction="J6" toJunction="J0" end="300" vehsPerHour="18.716603036278944"/>
  <flow id="JF66999" begin="240" fromJunction="J6" toJunction="J3" end="300" vehsPerHour="18.386997630538875"/>
  <flow id="JF67000" begin="240" fromJunction="J5" toJunction="J0" end="300" vehsPerHour="49.44112899637168"/>
  <flow id="JF67001" begin="240" fromJunction="J5" toJunction="J3" end="300" vehsPerHour="34.55108156051377"/>
  <flow id="JF67002" begin="240" fromJunction="J4" toJunction="J0" end="300" vehsPerHour="40.47487545911219"/>
  <flow id="JF67003" begin="240" fromJunction="J4" toJunction="J3" end="300" vehsPerHour="22.38549302480397"/>
  <flow id="JF67004" begin="300" fromJunction="J0" toJunction="J3" end="360" vehsPerHour="122.1477735678277"/>
  <flow id="JF67005" begin="300" fromJunction="J3" toJunction="J0" end="360" vehsPerHour="250.29223870798663"/>
  <flow id="JF67006" begin="300" fromJunction="J0" toJunction="J7" end="360" vehsPerHour="11.234454273984968"/>
  <flow id="JF67007" begin="300" fromJunction="J0" toJunction="J6" end="360" vehsPerHour="43.28905947276691"/>
  <flow id="JF67008" begin="300" fromJunction="J0" toJunction="J5" end="360" vehsPerHour="89.94156001182618"/>
  <flow id="JF67009" begin="300" fromJunction="J0" toJunction="J4" end="360" vehsPerHour="43.139371903634256"/>
  <flow id="JF67010" begin="300" fromJunction="J3" toJunction="J7" end="360" vehsPerHour="35.77648520709184"/>
  <flow id="JF67011" begin="300" fromJunction="J3" toJunction="J6" end="360" vehsPerHour="101.84915946268687"/>
  <flow id="JF67012" begin="300" fromJunction="J3" toJunction="J5" end="360" vehsPerHour="119.33953960642637"/>
  <flow id="JF67013" begin="300" fromJunction="J3" toJunction="J4" end="360" vehsPerHour="24.05361486776403"/>
  <flow id="JF67014" begin="360" fromJunction="J0" toJunction="J3" end="420" vehsPerHour="95.1118512808712"/>
  <flow id="JF67015" begin="360" fromJunction="J3" toJunction="J0" end="420" vehsPerHour="10.980620395848815"/>
  <flow id="JF67016" begin="360" fromJunction="J0" toJunction="J7" end="420" vehsPerHour="51.45396645369754"/>
  <flow id="JF67017" begin="360" fromJunction="J0" toJunction="J6" end="420" vehsPerHour="133.94297987161002"/>
  <flow id="JF67018" begin="360" fromJunction="J0" toJunction="J5" end="420" vehsPerHour="91.1234692779705"/>
  <flow id="JF67019" begin="360" fromJunction="J0" toJunction="J4" end="420" vehsPerHour="1.4967762126781612"/>
  <flow id="JF67020" begin="360" fromJunction="J3" toJunction="J7" end="420" vehsPerHour="130.1613711071131"/>
  <flow id="JF67021" begin="360" fromJunction="J3" toJunction="J6" end="420" vehsPerHour="7.6863740934740346"/>
  <flow id="JF67022" begin="360" fromJunction="J3" toJunction="J5" end="420" vehsPerHour="109.82048974280904"/>
  <flow id="JF67023" begin="360" fromJunction="J3" toJunction="J4" end="420" vehsPerHour="27.10521992682769"/>
  <flow id="JF67024" begin="360" fromJunction="J7" toJunction="J6" end="420" vehsPerHour="63.83028233082395"/>
  <flow id="JF67025" begin="360" fromJunction="J7" toJunction="J5" end="420" vehsPerHour="40.65900807245638"/>
  <flow id="JF67026" begin="360" fromJunction="J7" toJunction="J4" end="420" vehsPerHour="47.68429836186846"/>
  <flow id="JF67027" begin="360" fromJunction="J6" toJunction="J7" end="420" vehsPerHour="36.59461106329046"/>
  <flow id="JF67028" begin="360" fromJunction="J6" toJunction="J5" end="420" vehsPerHour="60.38024081625107"/>
  <flow id="JF67029" begin="360" fromJunction="J6" toJunction="J4" end="420" vehsPerHour="47.259546915444574"/>
  <flow id="JF67030" begin="360" fromJunction="J5" toJunction="J7" end="420" vehsPerHour="58.470622097823"/>
  <flow id="JF67031" begin="360" fromJunction="J5" toJunction="J6" end="420" vehsPerHour="29.062768383106807"/>
  <flow id="JF67032" begin="360" fromJunction="J5" toJunction="J4" end="420" vehsPerHour="53.18423650978769"/>
  <flow id="JF67033" begin="360" fromJunction="J4" toJunction="J7" end="420" vehsPerHour="4.6855821720820705"/>
  <flow id="JF67034" begin="360" fromJunction="J4" toJunction="J6" end="420" vehsPerHour="45.24094097842991"/>
  <flow id="JF67035" begin="360" fromJunction="J4" toJunction="J5" end="420" vehsPerHour="34.145411168120134"/>
  <flow id="JF67036" begin="360" fromJunction="J7" toJunction="J0" end="420" vehsPerHour="45.664424528574884"/>
  <flow id="JF67037" begin="360" fromJunction="J7" toJunction="J3" end="420" vehsPerHour="44.898609908698226"/>
  <flow id="JF67038" begin="360" fromJunction="J6" toJunction="J0" end="420" vehsPerHour="9.008468277411978"/>
  <flow id="JF67039" begin="360" fromJunction="J6" toJunction="J3" end="420" vehsPerHour="41.494214054378595"/>
  <flow id="JF67040" begin="360" fromJunction="J5" toJunction="J0" end="420" vehsPerHour="28.624669288367528"/>
  <flow id="JF67041" begin="360" fromJunction="J5" toJunction="J3" end="420" vehsPerHour="44.78644788419936"/>
  <flow id="JF67042" begin="360" fromJunction="J4" toJunction="J0" end="420" vehsPerHour="21.45067875988"/>
  <flow id="JF67043" begin="360" fromJunction="J4" toJunction="J3" end="420" vehsPerHour="6.854812891129851"/>
  <flow id="JF67044" begin="420" fromJunction="J0" toJunction="J3" end="480" vehsPerHour="388.60573031673476"/>
  <flow id="JF67045" begin="420" fromJunction="J3" toJunction="J0" end="480" vehsPerHour="118.62715288015502"/>
  <flow id="JF67046" begin="420" fromJunction="J0" toJunction="J7" end="480" vehsPerHour="84.06171353901524"/>
  <flow id="JF67047" begin="420" fromJunction="J0" toJunction="J6" end="480" vehsPerHour="74.01794076206788"/>
  <flow id="JF67048" begin="420" fromJunction="J0" toJunction="J5" end="480" vehsPerHour="59.16843751295278"/>
  <flow id="JF67049" begin="420" fromJunction="J0" toJunction="J4" end="480" vehsPerHour="91.92317856959409"/>
  <flow id="JF67050" begin="420" fromJunction="J3" toJunction="J7" end="480" vehsPerHour="103.59959417633236"/>
  <flow id="JF67051" begin="420" fromJunction="J3" toJunction="J6" end="480" vehsPerHour="43.922544053529414"/>
  <flow id="JF67052" begin="420" fromJunction="J3" toJunction="J5" end="480" vehsPerHour="91.14569294960646"/>
  <flow id="JF67053" begin="420" fromJunction="J3" toJunction="J4" end="480" vehsPerHour="119.18129170906708"/>
  <flow id="JF67054" begin="420" fromJunction="J7" toJunction="J6" end="480" vehsPerHour="57.88375938922601"/>
  <flow id="JF67055" begin="420" fromJunction="J7" toJunction="J5" end="480" vehsPerHour="64.71709401378199"/>
  <flow id="JF67056" begin="420" fromJunction="J7" toJunction="J4" end="480" vehsPerHour="52.39339922277596"/>
  <flow id="JF67057" begin="420" fromJunction="J6" toJunction="J7" end="480" vehsPerHour="6.74010582422803"/>
  <flow id="JF67058" begin="420" fromJunction="J6" toJunction="J5" end="480" vehsPerHour="41.644722472350516"/>
  <flow id="JF67059" begin="420" fromJunction="J6" toJunction="J4" end="480" vehsPerHour="51.92559074610578"/>
  <flow id="JF67060" begin="420" fromJunction="J5" toJunction="J7" end="480" vehsPerHour="14.103638761608982"/>
  <flow id="JF67061" begin="420" fromJunction="J5" toJunction="J6" end="480" vehsPerHour="59.991649163076566"/>
  <flow id="JF67062" begin="420" fromJunction="J5" toJunction="J4" end="480" vehsPerHour="43.42538545882887"/>
  <flow id="JF67063" begin="420" fromJunction="J4" toJunction="J7" end="480" vehsPerHour="15.909093852188107"/>
  <flow id="JF67064" begin="420" fromJunction="J4" toJunction="J6" end="480" vehsPerHour="11.263036490280346"/>
  <flow id="JF67065" begin="420" fromJunction="J4" toJunction="J5" end="480" vehsPerHour="63.09531727045801"/>
  <flow id="JF67066" begin="420" fromJunction="J7" toJunction="J0" end="480" vehsPerHour="63.85893028886627"/>
  <flow id="JF67067" begin="420" fromJunction="J7" toJunction="J3" end="480" vehsPerHour="38.571536276441044"/>
  <flow id="JF67068" begin="420" fromJunction="J6" toJunction="J0" end="480" vehsPerHour="22.347992860929402"/>
  <flow id="JF67069" begin="420" fromJunction="J6" toJunction="J3" end="480" vehsPerHour="56.800476270959464"/>
  <flow id="JF67070" begin="420" fromJunction="J5" toJunction="J0" end="480" vehsPerHour="41.72183409152472"/>
  <flow id="JF67071" begin="420" fromJunction="J5" toJunction="J3" end="480" vehsPerHour="58.61208319835841"/>
  <flow id="JF67072" begin="420" fromJunction="J4" toJunction="J0" end="480" vehsPerHour="65.12878104835025"/>
  <flow id="JF67073" begin="420" fromJunction="J4" toJunction="J3" end="480" vehsPerHour="24.061302412466844"/>
  <flow id="JF67074" begin="480" fromJunction="J0" toJunction="J3" end="540" vehsPerHour="247.8425732501038"/>
  <flow id="JF67075" begin="480" fromJunction="J3" toJunction="J0" end="540" vehsPerHour="405.5918884357563"/>
  <flow id="JF67076" begin="480" fromJunction="J0" toJunction="J7" end="540" vehsPerHour="131.26208354949355"/>
  <flow id="JF67077" begin="480" fromJunction="J0" toJunction="J6" end="540" vehsPerHour="15.403010453798963"/>
  <flow id="JF67078" begin="480" fromJunction="J0" toJunction="J5" end="540" vehsPerHour="110.3967679689419"/>
  <flow id="JF67079" begin="480" fromJunction="J0" toJunction="J4" end="540" vehsPerHour="31.9882783543893"/>
  <flow id="JF67080" begin="480" fromJunction="J3" toJunction="J7" end="540" vehsPerHour="54.659897272775815"/>
  <flow id="JF67081" begin="480" fromJunction="J3" toJunction="J6" end="540" vehsPerHour="26.495981259943935"/>
  <flow id="JF67082" begin="480" fromJunction="J3" toJunction="J5" end="540" vehsPerHour="109.83111596052316"/>
  <flow id="JF67083" begin="480" fromJunction="J3" toJunction="J4" end="540" vehsPerHour="86.06192978003729"/>
  <flow id="JF67084" begin="540" fromJunction="J0" toJunction="J3" end="600" vehsPerHour="99.80801323589871"/>
  <flow id="JF67085" begin="540" fromJunction="J3" toJunction="J0" end="600" vehsPerHour="190.96493233137335"/>
  <flow id="JF67086" begin="540" fromJunction="J0" toJunction="J7" end="600" vehsPerHour="86.36092830224823"/>
  <flow id="JF67087" begin="540" fromJunction="J0" toJunction="J6" end="600" vehsPerHour="78.93254507792747"/>
  <flow id="JF67088" begin="540" fromJunction="J0" toJunction="J5" end="600" vehsPerHour="114.84398341529881"/>
  <flow id="JF67089" begin="540" fromJunction="J0" toJunction="J4" end="600" vehsPerHour="95.73122021986144"/>
  <flow id="JF67090" begin="540" fromJunction="J3" toJunction="J7" end="600" vehsPerHour="27.000602880231764"/>
  <flow id="JF67091" begin="540" fromJunction="J3" toJunction="J6" end="600" vehsPerHour="126.4503058920494"/>
  <flow id="JF67092" begin="540" fromJunction="J3" toJunction="J5" end="600" vehsPerHour="79.02126890111155"/>
  <flow id="JF67093" begin="540" fromJunction="J3" toJunction="J4" end="600" vehsPerHour="80.80284128155354"/>
  <flow id="JF67094" begin="540" fromJunction="J7" toJunction="J6" end="600" vehsPerHour="50.17025227542582"/>
  <flow id="JF67095" begin="540" fromJunction="J7" toJunction="J5" end="600" vehsPerHour="15.13874812290132"/>
  <flow id="JF67096" begin="540" fromJunction="J7" toJunction="J4" end="600" vehsPerHour="15.65490056971721"/>
  <flow id="JF67097" begin="540" fromJunction="J6" toJunction="J7" end="600" vehsPerHour="12.726724047850455"/>
  <flow id="JF67098" begin="540" fromJunction="J6" toJunction="J5" end="600" vehsPerHour="0.7587165283167026"/>
  <flow id="JF67099" begin="540" fromJunction="J6" toJunction="J4" end="600" vehsPerHour="52.32453209480738"/>
  <flow id="JF67100" begin="540" fromJunction="J5" toJunction="J7" end="600" vehsPerHour="34.27886418438738"/>
  <flow id="JF67101" begin="540" fromJunction="J5" toJunction="J6" end="600" vehsPerHour="34.37150811571148"/>
  <flow id="JF67102" begin="540" fromJunction="J5" toJunction="J4" end="600" vehsPerHour="5.184555300830237"/>
  <flow id="JF67103" begin="540" fromJunction="J4" toJunction="J7" end="600" vehsPerHour="9.300991939661202"/>
  <flow id="JF67104" begin="540" fromJunction="J4" toJunction="J6" end="600" vehsPerHour="53.596770390820204"/>
  <flow id="JF67105" begin="540" fromJunction="J4" toJunction="J5" end="600" vehsPerHour="58.04308640890345"/>
  <flow id="JF67106" begin="540" fromJunction="J7" toJunction="J0" end="600" vehsPerHour="7.885093890147428"/>
  <flow id="JF67107" begin="540" fromJunction="J7" toJunction="J3" end="600" vehsPerHour="23.48766139699936"/>
  <flow id="JF67108" begin="540" fromJunction="J6" toJunction="J0" end="600" vehsPerHour="44.82122593225163"/>
  <flow id="JF67109" begin="540" fromJunction="J6" toJunction="J3" end="600" vehsPerHour="30.121633773868865"/>
  <flow id="JF67110" begin="540" fromJunction="J5" toJunction="J0" end="600" vehsPerHour="42.91350576773676"/>
  <flow id="JF67111" begin="540" fromJunction="J5" toJunction="J3" end="600" vehsPerHour="39.32962876609192"/>
  <flow id="JF67112" begin="540" fromJunction="J4" toJunction="J0" end="600" vehsPerHour="23.91071519278348"/>
  <flow id="JF67113" begin="540" fromJunction="J4" toJunction="J3" end="600" vehsPerHour="6.9713533050235785"/>
  <flow id="JF67114" begin="600" fromJunction="J0" toJunction="J3" end="660" vehsPerHour="174.93860319163122"/>
  <flow id="JF67115" begin="600" fromJunction="J3" toJunction="J0" end="660" vehsPerHour="410.16388773591814"/>
  <flow id="JF67116" begin="600" fromJunction="J0" toJunction="J7" end="660" vehsPerHour="60.087525669646865"/>
  <flow id="JF67117" begin="600" fromJunction="J0" toJunction="J6" end="660" vehsPerHour="21.606990929497588"/>
  <flow id="JF67118" begin="600" fromJunction="J0" toJunction="J5" end="660" vehsPerHour="15.767535747534183"/>
  <flow id="JF67119" begin="600" fromJunction="J0" toJunction="J4" end="660" vehsPerHour="83.56607109373522"/>
  <flow id="JF67120" begin="600" fromJunction="J3" toJunction="J7" end="660" vehsPerHour="109.36341364135752"/>
  <flow id="JF67121" begin="600" fromJunction="J3" toJunction="J6" end="660" vehsPerHour="43.146049100970835"/>
  <flow id="JF67122" begin="600" fromJunction="J3" toJunction="J5" end="660" vehsPerHour="113.61518153541378"/>
  <flow id="JF67123" begin="600" fromJunction="J3" toJunction="J4" end="660" vehsPerHour="83.44710206986932"/>
  <flow id="JF67124" begin="600" fromJunction="J7" toJunction="J6" end="660" vehsPerHour="15.330939114117102"/>
  <flow id="JF67125" begin="600" fromJunction="J7" toJunction="J5" end="660" vehsPerHour="39.00851616908443"/>
  <flow id="JF67126" begin="600" fromJunction="J7" toJunction="J4" end="660" vehsPerHour="51.81831370481217"/>
  <flow id="JF67127" begin="600" fromJunction="J6" toJunction="J7" end="660" vehsPerHour="28.530351164494803"/>
  <flow id="JF67128" begin="600" fromJunction="J6" toJunction="J5" end="660" vehsPerHour="0.1820994253071827"/>
  <flow id="JF67129" begin="600" fromJunction="J6" toJunction="J4" end="660" vehsPerHour="9.179009231643116"/>
  <flow id="JF67130" begin="600" fromJunction="J5" toJunction="J7" end="660" vehsPerHour="5.3231086609752145"/>
  <flow id="JF67131" begin="600" fromJunction="J5" toJunction="J6" end="660" vehsPerHour="48.03126801712353"/>
  <flow id="JF67132" begin="600" fromJunction="J5" toJunction="J4" end="660" vehsPerHour="61.5956255667831"/>
  <flow id="JF67133" begin="600" fromJunction="J4" toJunction="J7" end="660" vehsPerHour="28.914439942259584"/>
  <flow id="JF67134" begin="600" fromJunction="J4" toJunction="J6" end="660" vehsPerHour="20.323737484295496"/>
  <flow id="JF67135" begin="600" fromJunction="J4" toJunction="J5" end="660" vehsPerHour="18.489827336993024"/>
  <flow id="JF67136" begin="600" fromJunction="J7" toJunction="J0" end="660" vehsPerHour="68.57650255419567"/>
  <flow id="JF67137" begin="600" fromJunction="J7" toJunction="J3" end="660" vehsPerHour="52.807521882270024"/>
  <flow id="JF67138" begin="600" fromJunction="J6" toJunction="J0" end="660" vehsPerHour="26.64713816821013"/>
  <flow id="JF67139" begin="600" fromJunction="J6" toJunction="J3" end="660" vehsPerHour="68.46723029606186"/>
  <flow id="JF67140" begin="600" fromJunction="J5" toJunction="J0" end="660" vehsPerHour="8.416648160916962"/>
  <flow id="JF67141" begin="600" fromJunction="J5" toJunction="J3" end="660" vehsPerHour="24.904632178572236"/>
  <flow id="JF67142" begin="600" fromJunction="J4" toJunction="J0" end="660" vehsPerHour="44.48062084484991"/>
  <flow id="JF67143" begin="600" fromJunction="J4" toJunction="J3" end="660" vehsPerHour="51.52718304508703"/>
  <flow id="JF67144" begin="660" fromJunction="J0" toJunction="J3" end="720" vehsPerHour="517.5499107289435"/>
  <flow id="JF67145" begin="660" fromJunction="J3" toJunction="J0" end="720" vehsPerHour="139.5981998546619"/>
  <flow id="JF67146" begin="660" fromJunction="J0" toJunction="J7" end="720" vehsPerHour="126.59282071284119"/>
  <flow id="JF67147" begin="660" fromJunction="J0" toJunction="J6" end="720" vehsPerHour="21.569250751974614"/>
  <flow id="JF67148" begin="660" fromJunction="J0" toJunction="J5" end="720" vehsPerHour="5.526515661527194"/>
  <flow id="JF67149" begin="660" fromJunction="J0" toJunction="J4" end="720" vehsPerHour="29.88136306819256"/>
  <flow id="JF67150" begin="660" fromJunction="J3" toJunction="J7" end="720" vehsPerHour="69.05249927179997"/>
  <flow id="JF67151" begin="660" fromJunction="J3" toJunction="J6" end="720" vehsPerHour="118.72137514787764"/>
  <flow id="JF67152" begin="660" fromJunction="J3" toJunction="J5" end="720" vehsPerHour="81.70456513522491"/>
  <flow id="JF67153" begin="660" fromJunction="J3" toJunction="J4" end="720" vehsPerHour="137.05676493823992"/>
  <flow id="JF67154" begin="660" fromJunction="J7" toJunction="J6" end="720" vehsPerHour="21.322167980635285"/>
  <flow id="JF67155" begin="660" fromJunction="J7" toJunction="J5" end="720" vehsPerHour="31.806511889866282"/>
  <flow id="JF67156" begin="660" fromJunction="J7" toJunction="J4" end="720" vehsPerHour="23.9505288189522"/>
  <flow id="JF67157" begin="660" fromJunction="J6" toJunction="J7" end="720" vehsPerHour="64.59807683254944"/>
  <flow id="JF67158" begin="660" fromJunction="J6" toJunction="J5" end="720" vehsPerHour="4.568764512451666"/>
  <flow id="JF67159" begin="660" fromJunction="J6" toJunction="J4" end="720" vehsPerHour="50.04518861963209"/>
  <flow id="JF67160" begin="660" fromJunction="J5" toJunction="J7" end="720" vehsPerHour="28.77999718304395"/>
  <flow id="JF67161" begin="660" fromJunction="J5" toJunction="J6" end="720" vehsPerHour="15.335034932238273"/>