<?xml version="1.0" encoding="UTF-8"?>
<routes xmlns:xsi="http://www.w3.org/2001/XMLSchema-instance" xsi:noNamespaceSchemaLocation="http://sumo.dlr.de/xsd/routes_file.xsd">
  <flow id="JF30982" begin="0" fromJunction="J0" toJunction="J2" end="60" vehsPerHour="66.05940442557548"/>
  <flow id="JF30983" begin="0" fromJunction="J0" toJunction="J3" end="60" vehsPerHour="88.78762743551292"/>
  <flow id="JF30984" begin="0" fromJunction="J0" toJunction="J4" end="60" vehsPerHour="105.92767728500476"/>
  <flow id="JF30985" begin="0" fromJunction="J2" toJunction="J0" end="60" vehsPerHour="71.59725532754467"/>
  <flow id="JF30986" begin="0" fromJunction="J2" toJunction="J3" end="60" vehsPerHour="5.010476029054475"/>
  <flow id="JF30987" begin="0" fromJunction="J2" toJunction="J4" end="60" vehsPerHour="82.56601616488202"/>
  <flow id="JF30988" begin="0" fromJunction="J3" toJunction="J0" end="60" vehsPerHour="28.727555995825277"/>
  <flow id="JF30989" begin="0" fromJunction="J3" toJunction="J2" end="60" vehsPerHour="114.96133356508787"/>
  <flow id="JF30990" begin="0" fromJunction="J3" toJunction="J4" end="60" vehsPerHour="107.28728374697937"/>
  <flow id="JF30991" begin="0" fromJunction="J4" toJunction="J3" end="60" vehsPerHour="92.40912645528583"/>
  <flow id="JF30992" begin="60" fromJunction="J0" toJunction="J3" end="120" vehsPerHour="83.35867305179438"/>
  <flow id="JF30993" begin="60" fromJunction="J0" toJunction="J4" end="120" vehsPerHour="70.90741723971689"/>
  <flow id="JF30994" begin="60" fromJunction="J2" toJunction="J0" end="120" vehsPerHour="41.97573909048502"/>
  <flow id="JF30995" begin="60" fromJunction="J3" toJunction="J0" end="120" vehsPerHour="75.20600285776514"/>
  <flow id="JF30996" begin="60" fromJunction="J3" toJunction="J2" end="120" vehsPerHour="81.14406357209921"/>
  <flow id="JF30997" begin="60" fromJunction="J3" toJunction="J4" end="120" vehsPerHour="35.875155980020516"/>
  <flow id="JF30998" begin="60" fromJunction="J4" toJunction="J2" end="120" vehsPerHour="119.70828894439562"/>
  <flow id="JF30999" begin="60" fromJunction="J4" toJunction="J3" end="120" vehsPerHour="118.99726208409807"/>
  <flow id="JF31000" begin="120" fromJunction="J0" toJunction="J3" end="180" vehsPerHour="20.432639178804045"/>
  <flow id="JF31001" begin="120" fromJunction="J0" toJunction="J4" end="180" vehsPerHour="137.33033098511612"/>
  <flow id="JF31002" begin="120" fromJunction="J2" toJunction="J4" end="180" vehsPerHour="67.52498926556649"/>
  <flow id="JF31003" begin="120" fromJunction="J3" toJunction="J2" end="180" vehsPerHour="9.538782873141452"/>
  <flow id="JF31004" begin="120" fromJunction="J3" toJunction="J4" end="180" vehsPerHour="77.31420532807822"/>
  <flow id="JF31005" begin="120" fromJunction="J4" toJunction="J0" end="180" vehsPerHour="86.3985911652317"/>
  <flow id="JF31006" begin="120" fromJunction="J4" toJunction="J2" end="180" vehsPerHour="136.41645180610766"/>
  <flow id="JF31007" begin="180" fromJunction="J0" toJunction="J2" end="240" vehsPerHour="91.66843503984255"/>
  <flow id="JF31008" begin="180" fromJunction="J0" toJunction="J3" end="240" vehsPerHour="120.93158812968811"/>
  <flow id="JF31009" begin="180" fromJunction="J0" toJunction="J4" end="240" vehsPerHour="131.8503844959087"/>
  <flow id="JF31010" begin="180" fromJunction="J2" toJunction="J0" end="240" vehsPerHour="111.12277146596662"/>
  <flow id="JF31011" begin="180" fromJunction="J2" toJunction="J4" end="240" vehsPerHour="130.10253893311082"/>
  <flow id="JF31012" begin="180" fromJunction="J3" toJunction="J0" end="240" vehsPerHour="52.93191266141818"/>
  <flow id="JF31013" begin="180" fromJunction="J3" toJunction="J2" end="240" vehsPerHour="60.01245668583439"/>
  <flow id="JF31014" begin="180" fromJunction="J3" toJunction="J4" end="240" vehsPerHour="41.472958391503475"/>
  <flow id="JF31015" begin="180" fromJunction="J4" toJunction="J2" end="240" vehsPerHour="130.73928819794634"/>
  <flow id="JF31016" begin="180" fromJunction="J4" toJunction="J3" end="240" vehsPerHour="13.220364399872004"/>
  <flow id="JF31017" begin="240" fromJunction="J0" toJunction="J3" end="300" vehsPerHour="64.20722607557548"/>
  <flow id="JF31018" begin="240" fromJunction="J0" toJunction="J4" end="300" vehsPerHour="135.51867076254172"/>
  <flow id="JF31019" begin="240" fromJunction="J2" toJunction="J0" end="300" vehsPerHour="136.2114953638842"/>
  <flow id="JF31020" begin="240" fromJunction="J2" toJunction="J3" end="300" vehsPerHour="29.065879552722684"/>
  <flow id="JF31021" begin="240" fromJunction="J2" toJunction="J4" end="300" vehsPerHour="8.979844031447561"/>
  <flow id="JF31022" begin="240" fromJunction="J3" toJunction="J0" end="300" vehsPerHour="117.16598444530737"/>
  <flow id="JF31023" begin="240" fromJunction="J3" toJunction="J2" end="300" vehsPerHour="52.86293871140961"/>
  <flow id="JF31024" begin="240" fromJunction="J3" toJunction="J4" end="300" vehsPerHour="49.07801406971977"/>
  <flow id="JF31025" begin="240" fromJunction="J4" toJunction="J0" end="300" vehsPerHour="1.8180172634577485"/>
  <flow id="JF31026" begin="240" fromJunction="J4" toJunction="J2" end="300" vehsPerHour="18.720795048009506"/>
  <flow id="JF31027" begin="300" fromJunction="J0" toJunction="J3" end="360" vehsPerHour="99.48862004854428"/>
  <flow id="JF31028" begin="300" fromJunction="J0" toJunction="J4" end="360" vehsPerHour="112.6548993217757"/>
  <flow id="JF31029" begin="300" fromJunction="J2" toJunction="J0" end="360" vehsPerHour="1.0609434330679255"/>
  <flow id="JF31030" begin="300" fromJunction="J2" toJunction="J4" end="360" vehsPerHour="58.26132236538762"/>
  <flow id="JF31031" begin="300" fromJunction="J3" toJunction="J0" end="360" vehsPerHour="45.98593948424432"/>
  <flow id="JF31032" begin="300" fromJunction="J4" toJunction="J0" end="360" vehsPerHour="75.04827135172992"/>
  <flow id="JF31033" begin="300" fromJunction="J4" toJunction="J2" end="360" vehsPerHour="36.93610467264304"/>
  <flow id="JF31034" begin="300" fromJunction="J4" toJunction="J3" end="360" vehsPerHour="63.89139402818957"/>
  <flow id="JF31035" begin="360" fromJunction="J0" toJunction="J3" end="420" vehsPerHour="50.56186199442104"/>
  <flow id="JF31036" begin="360" fromJunction="J2" toJunction="J0" end="420" vehsPerHour="41.17466843172138"/>
  <flow id="JF31037" begin="360" fromJunction="J2" toJunction="J3" end="420" vehsPerHour="105.67406714682532"/>
  <flow id="JF31038" begin="360" fromJunction="J2" toJunction="J4" end="420" vehsPerHour="127.7099812250384"/>
  <flow id="JF31039" begin="360" fromJunction="J3" toJunction="J2" end="420" vehsPerHour="73.81448030749146"/>
  <flow id="JF31040" begin="360" fromJunction="J3" toJunction="J4" end="420" vehsPerHour="114.39159946714632"/>
  <flow id="JF31041" begin="360" fromJunction="J4" toJunction="J0" end="420" vehsPerHour="73.15297730118955"/>
  <flow id="JF31042" begin="360" fromJunction="J4" toJunction="J2" end="420" vehsPerHour="83.93741756018578"/>
  <flow id="JF31043" begin="360" fromJunction="J4" toJunction="J3" end="420" vehsPerHour="59.768870423830684"/>
  <flow id="JF31044" begin="420" fromJunction="J0" toJunction="J2" end="480" vehsPerHour="33.30360008566007"/>
  <flow id="JF31045" begin="420" fromJunction="J0" toJunction="J3" end="480" vehsPerHour="72.32292206863106"/>
  <flow id="JF31046" begin="420" fromJunction="J0" toJunction="J4" end="480" vehsPerHour="25.158843014598435"/>
  <flow id="JF31047" begin="420" fromJunction="J2" toJunction="J4" end="480" vehsPerHour="46.508749033809295"/>
  <flow id="JF31048" begin="420" fromJunction="J3" toJunction="J0" end="480" vehsPerHour="105.81359444876091"/>
  <flow id="JF31049" begin="420" fromJunction="J3" toJunction="J2" end="480" vehsPerHour="94.08542385742112"/>
  <flow id="JF31050" begin="420" fromJunction="J4" toJunction="J0" end="480" vehsPerHour="40.691936121175004"/>
  <flow id="JF31051" begin="420" fromJunction="J4" toJunction="J2" end="480" vehsPerHour="127.36254033005103"/>
  <flow id="JF31052" begin="420" fromJunction="J4" toJunction="J3" end="480" vehsPerHour="47.74971999106036"/>
  <flow id="JF31053" begin="480" fromJunction="J0" toJunction="J2" end="540" vehsPerHour="124.99592664976689"/>
  <flow id="JF31054" begin="480" fromJunction="J0" toJunction="J3" end="540" vehsPerHour="133.7067572499438"/>
  <flow id="JF31055" begin="480" fromJunction="J0" toJunction="J4" end="540" vehsPerHour="81.20845872770731"/>
  <flow id="JF31056" begin="480" fromJunction="J2" toJunction="J0" end="540" vehsPerHour="13.295622845068296"/>
  <flow id="JF31057" begin="480" fromJunction="J2" toJunction="J3" end="540" vehsPerHour="15.76241914000683"/>
  <flow id="JF31058" begin="480" fromJunction="J2" toJunction="J4" end="540" vehsPerHour="108.78351084697385"/>
  <flow id="JF31059" begin="480" fromJunction="J3" toJunction="J0" end="540" vehsPerHour="67.80190337836542"/>
  <flow id="JF31060" begin="480" fromJunction="J3" toJunction="J2" end="540" vehsPerHour="81.62491938038443"/>
  <flow id="JF31061" begin="480" fromJunction="J3" toJunction="J4" end="540" vehsPerHour="110.67153851051451"/>
  <flow id="JF31062" begin="480" fromJunction="J4" toJunction="J3" end="540" vehsPerHour="67.1906283634781"/>
  <flow id="JF31063" begin="540" fromJunction="J0" toJunction="J2" end="600" vehsPerHour="74.23262069334545"/>
  <flow id="JF31064" begin="540" fromJunction="J0" toJunction="J3" end="600" vehsPerHour="108.38230337027595"/>
  <flow id="JF31065" begin="540" fromJunction="J2" toJunction="J3" end="600" vehsPerHour="95.7532986053621"/>
  <flow id="JF31066" begin="540" fromJunction="J2" toJunction="J4" end="600" vehsPerHour="58.85816982556215"/>
  <flow id="JF31067" begin="540" fromJunction="J3" toJunction="J0" end="600" vehsPerHour="114.02370734421032"/>
  <flow id="JF31068" begin="540" fromJunction="J3" toJunction="J2" end="600" vehsPerHour="35.84786346448835"/>
  <flow id="JF31069" begin="540" fromJunction="J4" toJunction="J0" end="600" vehsPerHour="59.369543947688605"/>
  <flow id="JF31070" begin="540" fromJunction="J4" toJunction="J3" end="600" vehsPerHour="18.026587564067555"/>
  <flow id="JF31071" begin="600" fromJunction="J0" toJunction="J3" end="660" vehsPerHour="135.48515947177808"/>
  <flow id="JF31072" begin="600" fromJunction="J2" toJunction="J4" end="660" vehsPerHour="41.579123584971924"/>
  <flow id="JF31073" begin="600" fromJunction="J3" toJunction="J0" end="660" vehsPerHour="54.04063513573663"/>
  <flow id="JF31074" begin="600" fromJunction="J4" toJunction="J0" end="660" vehsPerHour="10.968045906159249"/>
  <flow id="JF31075" begin="600" fromJunction="J4" toJunction="J2" end="660" vehsPerHour="54.030735004105175"/>
  <flow id="JF31076" begin="600" fromJunction="J4" toJunction="J3" end="660" vehsPerHour="36.687143915129035"/>
  <flow id="JF31077" begin="660" fromJunction="J0" toJunction="J4" end="720" vehsPerHour="118.68575304787146"/>
  <flow id="JF31078" begin="660" fromJunction="J2" toJunction="J0" end="720" vehsPerHour="19.96074105426392"/>
  <flow id="JF31079" begin="660" fromJunction="J2" toJunction="J3" end="720" vehsPerHour="18.00012714067277"/>
  <flow id="JF31080" begin="660" fromJunction="J2" toJunction="J4" end="720" vehsPerHour="5.565562253366716"/>
  <flow id="JF31081" begin="660" fromJunction="J3" toJunction="J0" end="720" vehsPerHour="78.44337378629669"/>
  <flow id="JF31082" begin="660" fromJunction="J3" toJunction="J2" end="720" vehsPerHour="39.35984721874242"/>
  <flow id="JF31083" begin="660" fromJunction="J3" toJunction="J4" end="720" vehsPerHour="59.90933310867113"/>
  <flow id="JF31084" begin="660" fromJunction="J4" toJunction="J0" end="720" vehsPerHour="13.41609415336063"/>
  <flow id="JF31085" begin="660" fromJunction="J4" toJunction="J2" end="720" vehsPerHour="30.189317372180405"/>
  <flow id="JF31086" begin="660" fromJunction="J4" toJunction="J3" end="720" vehsPerHour="104.62025660023902"/>
  <flow id="JF31087" begin="720" fromJunction="J2" toJunction="J0" end="780" vehsPerHour="90.35200031961882"/>
  <flow id="JF31088" begin="720" fromJunction="J3" toJunction="J0" end="780" vehsPerHour="110.74937100706782"/>
  <flow id="JF31089" begin="720" fromJunction="J3" toJunction="J2" end="780" vehsPerHour="96.89318860886871"/>
  <flow id="JF31090" begin="720" fromJunction="J3" toJunction="J4" end="780" vehsPerHour="5.465155315184464"/>
  <flow id="JF31091" begin="720" fromJunction="J4" toJunction="J0" end="780" vehsPerHour="70.06854809816329"/>
  <flow id="JF31092" begin="720" fromJunction="J4" toJunction="J2" end="780" vehsPerHour="14.248174778287947"/>
  <flow id="JF31093" begin="780" fromJunction="J2" toJunction="J3" end="840" vehsPerHour="37.28958194505752"/>
  <flow id="JF31094" begin="780" fromJunction="J2" toJunction="J4" end="840" vehsPerHour="103.63153747495446"/>
  <flow id="JF31095" begin="780" fromJunction="J3" toJunction="J0" end="840" vehsPerHour="56.68603126278109"/>
  <flow id="JF31096" begin="780" fromJunction="J3" toJunction="J2" end="840" vehsPerHour="5.945696351295155"/>
  <flow id="JF31097" begin="780" fromJunction="J4" toJunction="J0" end="840" vehsPerHour="8.224353627759875"/>
  <flow id="JF31098" begin="780" fromJunction="J4" toJunction="J3" end="840" vehsPerHour="84.41132100787136"/>
  <flow id="JF31099" begin="840" fromJunction="J0" toJunction="J3" end="900" vehsPerHour="108.774463148586"/>
  <flow id="JF31100" begin="840" fromJunction="J2" toJunction="J0" end="900" vehsPerHour="14.293833640991979"/>
  <flow id="JF31101" begin="840" fromJunction="J2" toJunction="J3" end="900" vehsPerHour="65.24792977986652"/>
  <flow id="JF31102" begin="840" fromJunction="J3" toJunction="J2" end="900" vehsPerHour="40.80342412209551"/>
  <flow id="JF31103" begin="840" fromJunction="J3" toJunction="J4" end="900" vehsPerHour="137.23136573664354"/>
  <flow id="JF31104" begin="840" fromJunction="J4" toJunction="J2" end="900" vehsPerHour="62.647233293223955"/>
  <flow id="JF31105" begin="900" fromJunction="J0" toJunction="J2" end="960" vehsPerHour="104.9210556033743"/>
  <flow id="JF31106" begin="900" fromJunction="J0" toJunction="J3" end="960" vehsPerHour="76.86122919497667"/>
  <flow id="JF31107" begin="900" fromJunction="J2" toJunction="J0" end="960" vehsPerHour="85.32556980221017"/>
  <flow id="JF31108" begin="900" fromJunction="J2" toJunction="J3" end="960" vehsPerHour="82.22903595228728"/>
  <flow id="JF31109" begin="900" fromJunction="J2" toJunction="J4" end="960" vehsPerHour="51.313656194468344"/>
  <flow id="JF31110" begin="900" fromJunction="J3" toJunction="J0" end="960" vehsPerHour="39.07791860177917"/>
  <flow id="JF31111" begin="900" fromJunction="J3" toJunction="J2" end="960" vehsPerHour="108.99885421076361"/>
  <flow id="JF31112" begin="900" fromJunction="J3" toJunction="J4" end="960" vehsPerHour="78.57931458658922"/>
  <flow id="JF31113" begin="900" fromJunction="J4" toJunction="J2" end="960" vehsPerHour="39.87372476854264"/>
  <flow id="JF31114" begin="900" fromJunction="J4" toJunction="J3" end="960" vehsPerHour="71.19191584363384"/>
  <flow id="JF31115" begin="960" fromJunction="J0" toJunction="J2" end="1020" vehsPerHour="79.37431156139047"/>
  <flow id="JF31116" begin="960" fromJunction="J0" toJunction="J3" end="1020" vehsPerHour="121.13718152558702"/>
  <flow id="JF31117" begin="960" fromJunction="J0" toJunction="J4" end="1020" vehsPerHour="0.4239623984703991"/>
  <flow id="JF31118" begin="960" fromJunction="J2" toJunction="J4" end="1020" vehsPerHour="125.29042735455425"/>
  <flow id="JF31119" begin="960" fromJunction="J3" toJunction="J2" end="1020" vehsPerHour="82.97114049717645"/>
  <flow id="JF31120" begin="960" fromJunction="J3" toJunction="J4" end="1020" vehsPerHour="75.86829807665265"/>
  <flow id="JF31121" begin="960" fromJunction="J4" toJunction="J0" end="1020" vehsPerHour="85.4720059592051"/>
  <flow id="JF31122" begin="1020" fromJunction="J0" toJunction="J2" end="1080" vehsPerHour="43.761537674016445"/>
  <flow id="JF31123" begin="1020" fromJunction="J0" toJunction="J4" end="1080" vehsPerHour="68.09834206432552"/>
  <flow id="JF31124" begin="1020" fromJunction="J2" toJunction="J0" end="1080" vehsPerHour="118.21658063914131"/>
  <flow id="JF31125" begin="1020" fromJunction="J2" toJunction="J3" end="1080" vehsPerHour="107.57769371772604"/>
  <flow id="JF31126" begin="1020" fromJunction="J2" toJunction="J4" end="1080" vehsPerHour="111.747481967193"/>
  <flow id="JF31127" begin="1020" fromJunction="J3" toJunction="J0" end="1080" vehsPerHour="65.33733216883424"/>
  <flow id="JF31128" begin="1020" fromJunction="J3" toJunction="J4" end="1080" vehsPerHour="47.728047220382734"/>
  <flow id="JF31129" begin="1020" fromJunction="J4" toJunction="J0" end="1080" vehsPerHour="11.945091640636784"/>
  <flow id="JF31130" begin="1020" fromJunction="J4" toJunction="J3" end="1080" vehsPerHour="72.57371043593845"/>
  <flow id="JF31131" begin="1080" fromJunction="J0" toJunction="J3" end="1140" vehsPerHour="126.11391690956583"/>
  <flow id="JF31132" begin="1080" fromJunction="J2" toJunction="J0" end="1140" vehsPerHour="50.010813843061406"/>
  <flow id="JF31133" begin="1080" fromJunction="J2" toJunction="J3" end="1140" vehsPerHour="16.606616499577488"/>
  <flow id="JF31134" begin="1080" fromJunction="J3" toJunction="J0" end="1140" vehsPerHour="103.41538924843843"/>
  <flow id="JF31135" begin="1080" fromJunction="J3" toJunction="J4" end="1140" vehsPerHour="5.222424060890043"/>
  <flow id="JF31136" begin="1140" fromJunction="J0" toJunction="J4" end="1200" vehsPerHour="27.976907817240733"/>
  <flow id="JF31137" begin="1140" fromJunction="J2" toJunction="J0" end="1200" vehsPerHour="103.65452688819119"/>
  <flow id="JF31138" begin="1140" fromJunction="J2" toJunction="J3" end="1200" vehsPerHour="42.24559150929821"/>
  <flow id="JF31139" begin="1140" fromJunction="J3" toJunction="J0" end="1200" vehsPerHour="40.35499659655051"/>
  <flow id="JF31140" begin="1140" fromJunction="J3" toJunction="J4" end="1200" vehsPerHour="40.10056341144394"/>
  <flow id="JF31141" begin="1140" fromJunction="J4" toJunction="J0" end="1200" vehsPerHour="49.074116969852554"/>
  <flow id="JF31142" begin="1140" fromJunction="J4" toJunction="J2" end="1200" vehsPerHour="0.6093850135892724"/>
  <flow id="JF31143" begin="1140" fromJunction="J4" toJunction="J3" end="1200" vehsPerHour="82.26966256056079"/>
  <flow id="JF31144" begin="1200" fromJunction="J0" toJunction="J2" end="1260" vehsPerHour="26.823201463490427"/>
  <flow id="JF31145" begin="1200" fromJunction="J0" toJunction="J3" end="1260" vehsPerHour="94.11431372128597"/>
  <flow id="JF31146" begin="1200" fromJunction="J0" toJunction="J4" end="1260" vehsPerHour="60.38038649816047"/>
  <flow id="JF31147" begin="1200" fromJunction="J2" toJunction="J0" end="1260" vehsPerHour="108.29546927963315"/>
  <flow id="JF31148" begin="1200" fromJunction="J2" toJunction="J4" end="1260" vehsPerHour="104.28985825834788"/>
  <flow id="JF31149" begin="1200" fromJunction="J3" toJunction="J0" end="1260" vehsPerHour="27.577632811836043"/>
  <flow id="JF31150" begin="1200" fromJunction="J3" toJunction="J2" end="1260" vehsPerHour="81.94725669340067"/>
  <flow id="JF31151" begin="1200" fromJunction="J3" toJunction="J4" end="1260" vehsPerHour="35.118411162307765"/>
  <flow id="JF31152" begin="1200" fromJunction="J4" toJunction="J0" end="1260" vehsPerHour="27.29913628606591"/>
  <flow id="JF31153" begin="1200" fromJunction="J4" toJunction="J2" end="1260" vehsPerHour="0.3347380594111888"/>
  <flow id="JF31154" begin="1200" fromJunction="J4" toJunction="J3" end="1260" vehsPerHour="106.25097496379837"/>
  <flow id="JF31155" begin="1260" fromJunction="J0" toJunction="J3" end="1320" vehsPerHour="112.4542263439749"/>
  <flow id="JF31156" begin="1260" fromJunction="J0" toJunction="J4" end="1320" vehsPerHour="124.77375864968407"/>
  <flow id="JF31157" begin="1260" fromJunction="J2" toJunction="J0" end="1320" vehsPerHour="89.31672551070179"/>
  <flow id="JF31158" begin="1260" fromJunction="J2" toJunction="J4" end="1320" vehsPerHour="9.229325979488605"/>
  <flow id="JF31159" begin="1260" fromJunction="J3" toJunction="J2" end="1320" vehsPerHour="124.6096988586699"/>
  <flow id="JF31160" begin="1260" fromJunction="J3" toJunction="J4" end="1320" vehsPerHour="56.38983835292982"/>
  <flow id="JF31161" begin="1260" fromJunction="J4" toJunction="J0" end="1320" vehsPerHour="116.60499600662014"/>
  <flow id="JF31162" begin="1260" fromJunction="J4" toJunction="J2" end="1320" vehsPerHour="80.57608737977537"/>
  <flow id="JF31163" begin="1320" fromJunction="J0" toJunction="J3" end="1380" vehsPerHour="117.50797466247586"/>
  <flow id="JF31164" begin="1320" fromJunction="J2" toJunction="J0" end="1380" vehsPerHour="39.6469325750953"/>
  <flow id="JF31165" begin="1320" fromJunction="J2" toJunction="J4" end="1380" vehsPerHour="92.84079259806533"/>
  <flow id="JF31166" begin="1320" fromJunction="J3" toJunction="J2" end="1380" vehsPerHour="16.026841074956877"/>
  <flow id="JF31167" begin="1320" fromJunction="J3" toJunction="J4" end="1380" vehsPerHour="94.71686839269411"/>
  <flow id="JF31168" begin="1320" fromJunction="J4" toJunction="J2" end="1380" vehsPerHour="17.563492841772465"/>
  <flow id="JF31169" begin="1320" fromJunction="J4" toJunction="J3" end="1380" vehsPerHour="0.1411737847775602"/>
  <flow id="JF31170" begin="1380" fromJunction="J0" toJunction="J2" end="1440" vehsPerHour="98.33324523155811"/>
  <flow id="JF31171" begin="1380" fromJunction="J0" toJunction="J4" end="1440" vehsPerHour="10.502691151262596"/>
  <flow id="JF31172" begin="1380" fromJunction="J2" toJunction="J3" end="1440" vehsPerHour="19.025401412386866"/>
  <flow id="JF31173" begin="1380" fromJunction="J2" toJunction="J4" end="1440" vehsPerHour="62.86834722164023"/>
  <flow id="JF31174" begin="1380" fromJunction="J3" toJunction="J0" end="1440" vehsPerHour="13.836102942525988"/>
  <flow id="JF31175" begin="1380" fromJunction="J4" toJunction="J2" end="1440" vehsPerHour="1.160710771429091"/>
  <flow id="JF31176" begin="1380" fromJunction="J4" toJunction="J3" end="1440" vehsPerHour="117.92739161034234"/>
  <flow id="JF31177" begin="1440" fromJunction="J0" toJunction="J2" end="1500" vehsPerHour="96.4383772216153"/>
  <flow id="JF31178" begin="1440" fromJunction="J0" toJunction="J4" end="1500" vehsPerHour="102.22908502640215"/>
  <flow id="JF31179" begin="1440" fromJunction="J2" toJunction="J0" end="1500" vehsPerHour="102.67169391466814"/>
  <flow id="JF31180" begin="1440" fromJunction="J2" toJunction="J3" end="1500" vehsPerHour="127.56734966212048"/>
  <flow id="JF31181" begin="1440" fromJunction="J2" toJunction="J4" end="1500" vehsPerHour="120.33472241901309"/>
  <flow id="JF31182" begin="1440" fromJunction="J3" toJunction="J0" end="1500" vehsPerHour="131.303841300372"/>
  <flow id="JF31183" begin="1440" fromJunction="J4" toJunction="J0" end="1500" vehsPerHour="39.9079421729012"/>
  <flow id="JF31184" begin="1440" fromJunction="J4" toJunction="J2" end="1500" vehsPerHour="108.95528185287856"/>
  <flow id="JF31185" begin="1440" fromJunction="J4" toJunction="J3" end="1500" vehsPerHour="117.0964430695263"/>
  <flow id="JF31186" begin="1500" fromJunction="J0" toJunction="J2" end="1560" vehsPerHour="62.18663292877891"/>
  <flow id="JF31187" begin="1500" fromJunction="J0" toJunction="J3" end="1560" vehsPerHour="91.30255305145755"/>
  <flow id="JF31188" begin="1500" fromJunction="J0" toJunction="J4" end="1560" vehsPerHour="80.58106130942059"/>
  <flow id="JF31189" begin="1500" fromJunction="J2" toJunction="J0" end="1560" vehsPerHour="80.78051258777067"/>
  <flow id="JF31190" begin="1500" fromJunction="J2" toJunction="J3" end="1560" vehsPerHour="106.51915975338642"/>
  <flow id="JF31191" begin="1500" fromJunction="J2" toJunction="J4" end="1560" vehsPerHour="90.17874302243395"/>
  <flow id="JF31192" begin="1500" fromJunction="J3" toJunction="J2" end="1560" vehsPerHour="58.545405588116154"/>
  <flow id="JF31193" begin="1500" fromJunction="J4" toJunction="J0" end="1560" vehsPerHour="126.03051025684674"/>
  <flow id="JF31194" begin="1560" fromJunction="J0" toJunction="J2" end="1620" vehsPerHour="91.64033664282998"/>
  <flow id="JF31195" begin="1560" fromJunction="J0" toJunction="J4" end="1620" vehsPerHour="61.67919234029691"/>
  <flow id="JF31196" begin="1560" fromJunction="J2" toJunction="J0" end="1620" vehsPerHour="61.10197010922745"/>
  <flow id="JF31197" begin="1560" fromJunction="J3" toJunction="J0" end="1620" vehsPerHour="132.9435411573438"/>
  <flow id="JF31198" begin="1560" fromJunction="J3" toJunction="J2" end="1620" vehsPerHour="101.56817290108836"/>
  <flow id="JF31199" begin="1560" fromJunction="J3" toJunction="J4" end="1620" vehsPerHour="29.186934028006938"/>
  <flow id="JF31200" begin="1560" fromJunction="J4" toJunction="J2" end="1620" vehsPerHour="18.267728495693728"/>
  <flow id="JF31201" begin="1560" fromJunction="J4" toJunction="J3" end="1620" vehsPerHour="91.04246173137804"/>
  <flow id="JF31202" begin="1620" fromJunction="J0" toJunction="J2" end="1680" vehsPerHour="113.94917863242405"/>
  <flow id="JF31203" begin="1620" fromJunction="J0" toJunction="J3" end="1680" vehsPerHour="36.92907347875271"/>
  <flow id="JF31204" begin="1620" fromJunction="J0" toJunction="J4" end="1680" vehsPerHour="103.2421572979152"/>
  <flow id="JF31205" begin="1620" fromJunction="J2" toJunction="J0" end="1680" vehsPerHour="79.07838071635224"/>
  <flow id="JF31206" begin="1620" fromJunction="J2" toJunction="J4" end="1680" vehsPerHour="73.31983013816902"/>
  <flow id="JF31207" begin="1620" fromJunction="J3" toJunction="J0" end="1680" vehsPerHour="125.6923101152341"/>
  <flow id="JF31208" begin="1620" fromJunction="J3" toJunction="J2" end="1680" vehsPerHour="81.4779182330358"/>
  <flow id="JF31209" begin="1620" fromJunction="J4" toJunction="J0" end="1680" vehsPerHour="23.186757144717337"/>
  <flow id="JF31210" begin="1620" fromJunction="J4" toJunction="J2" end="1680" vehsPerHour="20.255774389699152"/>
  <flow id="JF31211" begin="1620" fromJunction="J4" toJunction="J3" end="1680" vehsPerHour="90.23726569933777"/>
  <flow id="JF31212" begin="1680" fromJunction="J0" toJunction="J4" end="1740" vehsPerHour="11.27410743938032"/>
  <flow id="JF31213" begin="1680" fromJunction="J2" toJunction="J0" end="1740" vehsPerHour="44.62681044435254"/>
  <flow id="JF31214" begin="1680" fromJunction="J2" toJunction="J3" end="1740" vehsPerHour="86.37772519238166"/>
  <flow id="JF31215" begin="1680" fromJunction="J2" toJunction="J4" end="1740" vehsPerHour="65.40424067371973"/>
  <flow id="JF31216" begin="1680" fromJunction="J3" toJunction="J0" end="1740" vehsPerHour="21.09415393526358"/>
  <flow id="JF31217" begin="1680" fromJunction="J3" toJunction="J4" end="1740" vehsPerHour="67.47223482576595"/>
  <flow id="JF31218" begin="1680" fromJunction="J4" toJunction="J0" end="1740" vehsPerHour="18.387871441154417"/>
  <flow id="JF31219" begin="1680" fromJunction="J4" toJunction="J3" end="1740" vehsPerHour="133.89698140650538"/>
  <flow id="JF31220" begin="1740" fromJunction="J0" toJunction="J3" end="1800" vehsPerHour="74.96573184394889"/>
  <flow id="JF31221" begin="1740" fromJunction="J0" toJunction="J4" end="1800" vehsPerHour="52.029323134630204"/>
  <flow id="JF31222" begin="1740" fromJunction="J2" toJunction="J0" end="1800" vehsPerHour="43.97994458943265"/>
  <flow id="JF31223" begin="1740" fromJunction="J2" toJunction="J4" end="1800" vehsPerHour="43.550565254539286"/>
  <flow id="JF31224" begin="1740" fromJunction="J3" toJunction="J0" end="1800" vehsPerHour="129.6193352654649"/>
  <flow id="JF31225" begin="1740" fromJunction="J3" toJunction="J2" end="1800" vehsPerHour="44.10420359556977"/>
  <flow id="JF31226" begin="1740" fromJunction="J3" toJunction="J4" end="1800" vehsPerHour="100.92879805097564"/>
  <flow id="JF31227" begin="1740" fromJunction="J4" toJunction="J0" end="1800" vehsPerHour="17.130789608501303"/>
  <flow id="JF31228" begin="1740" fromJunction="J4" toJunction="J3" end="1800" vehsPerHour="28.623610047277605"/>
  <flow id="JF31229" begin="1800" fromJunction="J0" toJunction="J2" end="1860" vehsPerHour="69.40939389138622"/>
  <flow id="JF31230" begin="1800" fromJunction="J0" toJunction="J3" end="1860" vehsPerHour="70.17204537371957"/>
  <flow id="JF31231" begin="1800" fromJunction="J2" toJunction="J0" end="1860" vehsPerHour="89.86904287941107"/>
  <flow id="JF31232" begin="1800" fromJunction="J2" toJunction="J3" end="1860" vehsPerHour="59.88176904468488"/>
  <flow id="JF31233" begin="1800" fromJunction="J2" toJunction="J4" end="1860" vehsPerHour="72.26641154738687"/>
  <flow id="JF31234" begin="1800" fromJunction="J4" toJunction="J0" end="1860" vehsPerHour="67.19332901947577"/>
  <flow id="JF31235" begin="1800" fromJunction="J4" toJunction="J3" end="1860" vehsPerHour="56.38520068978001"/>
  <flow id="JF31236" begin="1860" fromJunction="J0" toJunction="J2" end="1920" vehsPerHour="124.58224329426534"/>
  <flow id="JF31237" begin="1860" fromJunction="J0" toJunction="J3" end="1920" vehsPerHour="0.8226304892828573"/>
  <flow id="JF31238" begin="1860" fromJunction="J0" toJunction="J4" end="1920" vehsPerHour="96.95098119656245"/>
  <flow id="JF31239" begin="1860" fromJunction="J2" toJunction="J0" end="1920" vehsPerHour="131.56103303055252"/>
  <flow id="JF31240" begin="1860" fromJunction="J2" toJunction="J3" end="1920" vehsPerHour="18.981136395960622"/>
  <flow id="JF31241" begin="1860" fromJunction="J3" toJunction="J0" end="1920" vehsPerHour="6.485284860117669"/>
  <flow id="JF31242" begin="1860" fromJunction="J3" toJunction="J4" end="1920" vehsPerHour="9.736872886781848"/>
  <flow id="JF31243" begin="1860" fromJunction="J4" toJunction="J2" end="1920" vehsPerHour="92.44802510452246"/>
  <flow id="JF31244" begin="1860" fromJunction="J4" toJunction="J3" end="1920" vehsPerHour="4.9121128666025715"/>
  <flow id="JF31245" begin="1920" fromJunction="J0" toJunction="J2" end="1980" vehsPerHour="82.32677726339715"/>
  <flow id="JF31246" begin="1920" fromJunction="J0" toJunction="J3" end="1980" vehsPerHour="115.77105305183882"/>