<?xml version="1.0" encoding="UTF-8"?>
<routes xmlns:xsi="http://www.w3.org/2001/XMLSchema-instance" xsi:noNamespaceSchemaLocation="http://sumo.dlr.de/xsd/routes_file.xsd">
  <flow id="JF31680" begin="0" fromJunction="J0" toJunction="J2" end="60" vehsPerHour="75.33738444003883"/>
  <flow id="JF31681" begin="0" fromJunction="J0" toJunction="J4" end="60" vehsPerHour="125.53713649257686"/>
  <flow id="JF31682" begin="0" fromJunction="J2" toJunction="J0" end="60" vehsPerHour="16.795830485088807"/>
  <flow id="JF31683" begin="0" fromJunction="J2" toJunction="J3" end="60" vehsPerHour="103.8520521452886"/>
  <flow id="JF31684" begin="0" fromJunction="J2" toJunction="J4" end="60" vehsPerHour="61.67326912795315"/>
  <flow id="JF31685" begin="0" fromJunction="J3" toJunction="J0" end="60" vehsPerHour="101.42348966367273"/>
  <flow id="JF31686" begin="0" fromJunction="J3" toJunction="J4" end="60" vehsPerHour="120.17941233316901"/>
  <flow id="JF31687" begin="0" fromJunction="J4" toJunction="J2" end="60" vehsPerHour="85.99276745585476"/>
  <flow id="JF31688" begin="60" fromJunction="J0" toJunction="J4" end="120" vehsPerHour="93.88533599444374"/>
  <flow id="JF31689" begin="60" fromJunction="J2" toJunction="J0" end="120" vehsPerHour="2.9343180875691277"/>
  <flow id="JF31690" begin="60" fromJunction="J3" toJunction="J0" end="120" vehsPerHour="119.30508277533525"/>
  <flow id="JF31691" begin="60" fromJunction="J3" toJunction="J2" end="120" vehsPerHour="46.54431506141909"/>
  <flow id="JF31692" begin="60" fromJunction="J4" toJunction="J0" end="120" vehsPerHour="53.17066878566592"/>
  <flow id="JF31693" begin="60" fromJunction="J4" toJunction="J2" end="120" vehsPerHour="94.09841900960083"/>
  <flow id="JF31694" begin="60" fromJunction="J4" toJunction="J3" end="120" vehsPerHour="79.27144254627466"/>
  <flow id="JF31695" begin="120" fromJunction="J0" toJunction="J2" end="180" vehsPerHour="0.871619739546874"/>
  <flow id="JF31696" begin="120" fromJunction="J0" toJunction="J3" end="180" vehsPerHour="5.764624458106142"/>
  <flow id="JF31697" begin="120" fromJunction="J0" toJunction="J4" end="180" vehsPerHour="103.82504937717258"/>
  <flow id="JF31698" begin="120" fromJunction="J2" toJunction="J3" end="180" vehsPerHour="62.761572006023314"/>
  <flow id="JF31699" begin="120" fromJunction="J2" toJunction="J4" end="180" vehsPerHour="125.68950831433231"/>
  <flow id="JF31700" begin="120" fromJunction="J3" toJunction="J0" end="180" vehsPerHour="62.06117761823414"/>
  <flow id="JF31701" begin="120" fromJunction="J3" toJunction="J2" end="180" vehsPerHour="72.51391525081739"/>
  <flow id="JF31702" begin="120" fromJunction="J3" toJunction="J4" end="180" vehsPerHour="5.634561416406852"/>
  <flow id="JF31703" begin="120" fromJunction="J4" toJunction="J0" end="180" vehsPerHour="90.10262374077296"/>
  <flow id="JF31704" begin="120" fromJunction="J4" toJunction="J2" end="180" vehsPerHour="28.614865449094314"/>
  <flow id="JF31705" begin="120" fromJunction="J4" toJunction="J3" end="180" vehsPerHour="7.222962963208475"/>
  <flow id="JF31706" begin="180" fromJunction="J0" toJunction="J2" end="240" vehsPerHour="6.256034456514636"/>
  <flow id="JF31707" begin="180" fromJunction="J2" toJunction="J0" end="240" vehsPerHour="26.251524259805993"/>
  <flow id="JF31708" begin="180" fromJunction="J2" toJunction="J3" end="240" vehsPerHour="44.633781094399225"/>
  <flow id="JF31709" begin="180" fromJunction="J2" toJunction="J4" end="240" vehsPerHour="34.51894762612145"/>
  <flow id="JF31710" begin="180" fromJunction="J3" toJunction="J4" end="240" vehsPerHour="12.442986305541051"/>
  <flow id="JF31711" begin="180" fromJunction="J4" toJunction="J2" end="240" vehsPerHour="119.81159360804934"/>
  <flow id="JF31712" begin="180" fromJunction="J4" toJunction="J3" end="240" vehsPerHour="96.71694018489403"/>
  <flow id="JF31713" begin="240" fromJunction="J0" toJunction="J3" end="300" vehsPerHour="14.396092878973914"/>
  <flow id="JF31714" begin="240" fromJunction="J0" toJunction="J4" end="300" vehsPerHour="79.34672929624347"/>
  <flow id="JF31715" begin="240" fromJunction="J2" toJunction="J0" end="300" vehsPerHour="76.66757993556045"/>
  <flow id="JF31716" begin="240" fromJunction="J2" toJunction="J3" end="300" vehsPerHour="10.398341110452161"/>
  <flow id="JF31717" begin="240" fromJunction="J2" toJunction="J4" end="300" vehsPerHour="125.19979018871014"/>
  <flow id="JF31718" begin="240" fromJunction="J4" toJunction="J0" end="300" vehsPerHour="77.34047760482154"/>
  <flow id="JF31719" begin="240" fromJunction="J4" toJunction="J2" end="300" vehsPerHour="19.337902858472397"/>
  <flow id="JF31720" begin="300" fromJunction="J3" toJunction="J0" end="360" vehsPerHour="72.29395935177857"/>
  <flow id="JF31721" begin="300" fromJunction="J3" toJunction="J2" end="360" vehsPerHour="57.62326132241637"/>
  <flow id="JF31722" begin="300" fromJunction="J4" toJunction="J0" end="360" vehsPerHour="84.54115346844617"/>
  <flow id="JF31723" begin="300" fromJunction="J4" toJunction="J3" end="360" vehsPerHour="96.87496377886926"/>
  <flow id="JF31724" begin="360" fromJunction="J0" toJunction="J3" end="420" vehsPerHour="110.97544320347396"/>
  <flow id="JF31725" begin="360" fromJunction="J0" toJunction="J4" end="420" vehsPerHour="49.29534445962893"/>
  <flow id="JF31726" begin="360" fromJunction="J2" toJunction="J3" end="420" vehsPerHour="98.79838436723786"/>
  <flow id="JF31727" begin="360" fromJunction="J2" toJunction="J4" end="420" vehsPerHour="34.93252705549382"/>
  <flow id="JF31728" begin="360" fromJunction="J3" toJunction="J0" end="420" vehsPerHour="120.6297995935084"/>
  <flow id="JF31729" begin="360" fromJunction="J3" toJunction="J2" end="420" vehsPerHour="73.5541538876029"/>
  <flow id="JF31730" begin="360" fromJunction="J3" toJunction="J4" end="420" vehsPerHour="129.01465420941196"/>
  <flow id="JF31731" begin="360" fromJunction="J4" toJunction="J0" end="420" vehsPerHour="122.20772307076105"/>
  <flow id="JF31732" begin="360" fromJunction="J4" toJunction="J2" end="420" vehsPerHour="39.417994493718496"/>
  <flow id="JF31733" begin="360" fromJunction="J4" toJunction="J3" end="420" vehsPerHour="123.43589130854912"/>
  <flow id="JF31734" begin="420" fromJunction="J0" toJunction="J2" end="480" vehsPerHour="102.97561999706201"/>
  <flow id="JF31735" begin="420" fromJunction="J0" toJunction="J3" end="480" vehsPerHour="29.8287999775713"/>
  <flow id="JF31736" begin="420" fromJunction="J0" toJunction="J4" end="480" vehsPerHour="18.6807988626028"/>
  <flow id="JF31737" begin="420" fromJunction="J2" toJunction="J0" end="480" vehsPerHour="106.05293951905107"/>
  <flow id="JF31738" begin="420" fromJunction="J2" toJunction="J4" end="480" vehsPerHour="77.65359416866808"/>
  <flow id="JF31739" begin="420" fromJunction="J3" toJunction="J0" end="480" vehsPerHour="72.90655279736526"/>
  <flow id="JF31740" begin="420" fromJunction="J3" toJunction="J2" end="480" vehsPerHour="126.95558456449297"/>
  <flow id="JF31741" begin="480" fromJunction="J0" toJunction="J2" end="540" vehsPerHour="35.066913322588015"/>
  <flow id="JF31742" begin="480" fromJunction="J0" toJunction="J3" end="540" vehsPerHour="18.69306361800875"/>
  <flow id="JF31743" begin="480" fromJunction="J0" toJunction="J4" end="540" vehsPerHour="40.629037304753716"/>
  <flow id="JF31744" begin="480" fromJunction="J2" toJunction="J0" end="540" vehsPerHour="57.226138514339674"/>
  <flow id="JF31745" begin="480" fromJunction="J2" toJunction="J4" end="540" vehsPerHour="121.18391319860416"/>
  <flow id="JF31746" begin="480" fromJunction="J4" toJunction="J0" end="540" vehsPerHour="117.04645255557772"/>
  <flow id="JF31747" begin="480" fromJunction="J4" toJunction="J2" end="540" vehsPerHour="120.76101643373394"/>
  <flow id="JF31748" begin="480" fromJunction="J4" toJunction="J3" end="540" vehsPerHour="15.004775019581258"/>
  <flow id="JF31749" begin="540" fromJunction="J0" toJunction="J2" end="600" vehsPerHour="113.21283570813024"/>
  <flow id="JF31750" begin="540" fromJunction="J0" toJunction="J3" end="600" vehsPerHour="35.360334178756666"/>
  <flow id="JF31751" begin="540" fromJunction="J2" toJunction="J3" end="600" vehsPerHour="72.80321498093286"/>
  <flow id="JF31752" begin="540" fromJunction="J3" toJunction="J0" end="600" vehsPerHour="77.30499765455973"/>
  <flow id="JF31753" begin="540" fromJunction="J3" toJunction="J4" end="600" vehsPerHour="63.586927881313024"/>
  <flow id="JF31754" begin="540" fromJunction="J4" toJunction="J2" end="600" vehsPerHour="28.500892077497543"/>
  <flow id="JF31755" begin="540" fromJunction="J4" toJunction="J3" end="600" vehsPerHour="95.63090910761423"/>
  <flow id="JF31756" begin="600" fromJunction="J0" toJunction="J2" end="660" vehsPerHour="80.14361155879898"/>
  <flow id="JF31757" begin="600" fromJunction="J0" toJunction="J3" end="660" vehsPerHour="75.4788465501234"/>
  <flow id="JF31758" begin="600" fromJunction="J0" toJunction="J4" end="660" vehsPerHour="68.15944263720635"/>
  <flow id="JF31759" begin="600" fromJunction="J2" toJunction="J0" end="660" vehsPerHour="96.66032653008222"/>
  <flow id="JF31760" begin="600" fromJunction="J2" toJunction="J3" end="660" vehsPerHour="136.16907110944192"/>
  <flow id="JF31761" begin="600" fromJunction="J2" toJunction="J4" end="660" vehsPerHour="71.29279179493717"/>
  <flow id="JF31762" begin="600" fromJunction="J3" toJunction="J0" end="660" vehsPerHour="120.47377430529475"/>
  <flow id="JF31763" begin="600" fromJunction="J3" toJunction="J4" end="660" vehsPerHour="38.86007517183308"/>
  <flow id="JF31764" begin="600" fromJunction="J4" toJunction="J0" end="660" vehsPerHour="106.9041262737305"/>
  <flow id="JF31765" begin="600" fromJunction="J4" toJunction="J2" end="660" vehsPerHour="23.54042213956601"/>
  <flow id="JF31766" begin="600" fromJunction="J4" toJunction="J3" end="660" vehsPerHour="27.877070946907892"/>
  <flow id="JF31767" begin="660" fromJunction="J0" toJunction="J2" end="720" vehsPerHour="3.9998988772953905"/>
  <flow id="JF31768" begin="660" fromJunction="J0" toJunction="J3" end="720" vehsPerHour="42.85468582701014"/>
  <flow id="JF31769" begin="660" fromJunction="J0" toJunction="J4" end="720" vehsPerHour="122.70686983447412"/>
  <flow id="JF31770" begin="660" fromJunction="J2" toJunction="J0" end="720" vehsPerHour="94.8816547298711"/>
  <flow id="JF31771" begin="660" fromJunction="J2" toJunction="J4" end="720" vehsPerHour="109.49646697809399"/>
  <flow id="JF31772" begin="660" fromJunction="J3" toJunction="J0" end="720" vehsPerHour="132.4736781541054"/>
  <flow id="JF31773" begin="660" fromJunction="J3" toJunction="J2" end="720" vehsPerHour="74.42818072078171"/>
  <flow id="JF31774" begin="660" fromJunction="J3" toJunction="J4" end="720" vehsPerHour="2.03444513656982"/>
  <flow id="JF31775" begin="660" fromJunction="J4" toJunction="J2" end="720" vehsPerHour="4.619241485172724"/>
  <flow id="JF31776" begin="720" fromJunction="J0" toJunction="J3" end="780" vehsPerHour="128.74475364883497"/>
  <flow id="JF31777" begin="720" fromJunction="J0" toJunction="J4" end="780" vehsPerHour="65.24641549165621"/>
  <flow id="JF31778" begin="720" fromJunction="J2" toJunction="J3" end="780" vehsPerHour="74.73255592403981"/>
  <flow id="JF31779" begin="720" fromJunction="J3" toJunction="J2" end="780" vehsPerHour="128.61957200919082"/>
  <flow id="JF31780" begin="720" fromJunction="J3" toJunction="J4" end="780" vehsPerHour="78.44400573247846"/>
  <flow id="JF31781" begin="720" fromJunction="J4" toJunction="J0" end="780" vehsPerHour="72.68182753862169"/>
  <flow id="JF31782" begin="720" fromJunction="J4" toJunction="J2" end="780" vehsPerHour="30.884630905205015"/>
  <flow id="JF31783" begin="780" fromJunction="J0" toJunction="J2" end="840" vehsPerHour="58.989763442251565"/>
  <flow id="JF31784" begin="780" fromJunction="J0" toJunction="J3" end="840" vehsPerHour="31.515156530996467"/>
  <flow id="JF31785" begin="780" fromJunction="J0" toJunction="J4" end="840" vehsPerHour="120.37382284363778"/>
  <flow id="JF31786" begin="780" fromJunction="J2" toJunction="J0" end="840" vehsPerHour="39.90424341729335"/>
  <flow id="JF31787" begin="780" fromJunction="J2" toJunction="J3" end="840" vehsPerHour="116.65120858557484"/>
  <flow id="JF31788" begin="780" fromJunction="J2" toJunction="J4" end="840" vehsPerHour="50.41137473741393"/>
  <flow id="JF31789" begin="780" fromJunction="J3" toJunction="J0" end="840" vehsPerHour="125.7937590468448"/>
  <flow id="JF31790" begin="780" fromJunction="J3" toJunction="J2" end="840" vehsPerHour="136.43542447435078"/>
  <flow id="JF31791" begin="780" fromJunction="J3" toJunction="J4" end="840" vehsPerHour="82.65218301289548"/>
  <flow id="JF31792" begin="780" fromJunction="J4" toJunction="J0" end="840" vehsPerHour="77.25613677607996"/>
  <flow id="JF31793" begin="780" fromJunction="J4" toJunction="J2" end="840" vehsPerHour="89.44188023411809"/>
  <flow id="JF31794" begin="780" fromJunction="J4" toJunction="J3" end="840" vehsPerHour="12.078352166646248"/>
  <flow id="JF31795" begin="840" fromJunction="J0" toJunction="J2" end="900" vehsPerHour="59.34556787095739"/>
  <flow id="JF31796" begin="840" fromJunction="J0" toJunction="J3" end="900" vehsPerHour="76.27983825333544"/>
  <flow id="JF31797" begin="840" fromJunction="J2" toJunction="J0" end="900" vehsPerHour="62.325833758769406"/>
  <flow id="JF31798" begin="840" fromJunction="J2" toJunction="J3" end="900" vehsPerHour="50.167602830396206"/>
  <flow id="JF31799" begin="840" fromJunction="J2" toJunction="J4" end="900" vehsPerHour="10.648391180411005"/>
  <flow id="JF31800" begin="840" fromJunction="J3" toJunction="J0" end="900" vehsPerHour="2.5657092782848285"/>
  <flow id="JF31801" begin="840" fromJunction="J4" toJunction="J0" end="900" vehsPerHour="99.10202892397317"/>
  <flow id="JF31802" begin="840" fromJunction="J4" toJunction="J3" end="900" vehsPerHour="38.018736125593485"/>
  <flow id="JF31803" begin="900" fromJunction="J0" toJunction="J3" end="960" vehsPerHour="19.483454504713336"/>
  <flow id="JF31804" begin="900" fromJunction="J0" toJunction="J4" end="960" vehsPerHour="88.10587691319297"/>
  <flow id="JF31805" begin="900" fromJunction="J2" toJunction="J0" end="960" vehsPerHour="54.93292655548594"/>
  <flow id="JF31806" begin="900" fromJunction="J2" toJunction="J3" end="960" vehsPerHour="106.93383446228086"/>
  <flow id="JF31807" begin="900" fromJunction="J2" toJunction="J4" end="960" vehsPerHour="53.06467165722218"/>
  <flow id="JF31808" begin="900" fromJunction="J3" toJunction="J0" end="960" vehsPerHour="108.65687666995741"/>
  <flow id="JF31809" begin="900" fromJunction="J3" toJunction="J2" end="960" vehsPerHour="43.99865009518026"/>
  <flow id="JF31810" begin="900" fromJunction="J4" toJunction="J0" end="960" vehsPerHour="51.922821013282324"/>
  <flow id="JF31811" begin="900" fromJunction="J4" toJunction="J2" end="960" vehsPerHour="91.95242147062139"/>
  <flow id="JF31812" begin="900" fromJunction="J4" toJunction="J3" end="960" vehsPerHour="83.04299792239237"/>
  <flow id="JF31813" begin="960" fromJunction="J0" toJunction="J2" end="1020" vehsPerHour="72.12638826804194"/>
  <flow id="JF31814" begin="960" fromJunction="J0" toJunction="J3" end="1020" vehsPerHour="33.24414508470405"/>
  <flow id="JF31815" begin="960" fromJunction="J0" toJunction="J4" end="1020" vehsPerHour="24.23266898819593"/>
  <flow id="JF31816" begin="960" fromJunction="J2" toJunction="J0" end="1020" vehsPerHour="124.2552167364423"/>
  <flow id="JF31817" begin="960" fromJunction="J2" toJunction="J3" end="1020" vehsPerHour="98.4429974571379"/>
  <flow id="JF31818" begin="960" fromJunction="J2" toJunction="J4" end="1020" vehsPerHour="110.36801584124473"/>
  <flow id="JF31819" begin="960" fromJunction="J3" toJunction="J0" end="1020" vehsPerHour="92.19560583886856"/>
  <flow id="JF31820" begin="960" fromJunction="J3" toJunction="J2" end="1020" vehsPerHour="25.500138338310748"/>
  <flow id="JF31821" begin="960" fromJunction="J3" toJunction="J4" end="1020" vehsPerHour="78.85051391839424"/>
  <flow id="JF31822" begin="960" fromJunction="J4" toJunction="J0" end="1020" vehsPerHour="117.07588576598135"/>
  <flow id="JF31823" begin="960" fromJunction="J4" toJunction="J2" end="1020" vehsPerHour="108.24770878616178"/>
  <flow id="JF31824" begin="960" fromJunction="J4" toJunction="J3" end="1020" vehsPerHour="31.735088815266895"/>
  <flow id="JF31825" begin="1020" fromJunction="J0" toJunction="J2" end="1080" vehsPerHour="123.39336966213841"/>
  <flow id="JF31826" begin="1020" fromJunction="J0" toJunction="J4" end="1080" vehsPerHour="69.63030565293988"/>
  <flow id="JF31827" begin="1020" fromJunction="J2" toJunction="J0" end="1080" vehsPerHour="134.31372030018707"/>
  <flow id="JF31828" begin="1020" fromJunction="J2" toJunction="J4" end="1080" vehsPerHour="128.93365374352896"/>
  <flow id="JF31829" begin="1020" fromJunction="J3" toJunction="J4" end="1080" vehsPerHour="61.911556309496476"/>
  <flow id="JF31830" begin="1020" fromJunction="J4" toJunction="J0" end="1080" vehsPerHour="131.78786442532538"/>
  <flow id="JF31831" begin="1020" fromJunction="J4" toJunction="J2" end="1080" vehsPerHour="80.76721684847561"/>
  <flow id="JF31832" begin="1020" fromJunction="J4" toJunction="J3" end="1080" vehsPerHour="9.812325847837897"/>
  <flow id="JF31833" begin="1080" fromJunction="J0" toJunction="J2" end="1140" vehsPerHour="14.213667387219537"/>
  <flow id="JF31834" begin="1080" fromJunction="J0" toJunction="J3" end="1140" vehsPerHour="58.305039753326085"/>
  <flow id="JF31835" begin="1080" fromJunction="J2" toJunction="J3" end="1140" vehsPerHour="23.694802379210053"/>
  <flow id="JF31836" begin="1080" fromJunction="J3" toJunction="J0" end="1140" vehsPerHour="0.2923348002256282"/>
  <flow id="JF31837" begin="1080" fromJunction="J3" toJunction="J2" end="1140" vehsPerHour="75.18010435689477"/>
  <flow id="JF31838" begin="1140" fromJunction="J0" toJunction="J2" end="1200" vehsPerHour="79.22397982518454"/>
  <flow id="JF31839" begin="1140" fromJunction="J0" toJunction="J3" end="1200" vehsPerHour="85.2824003132502"/>
  <flow id="JF31840" begin="1140" fromJunction="J0" toJunction="J4" end="1200" vehsPerHour="106.13005437054808"/>
  <flow id="JF31841" begin="1140" fromJunction="J2" toJunction="J0" end="1200" vehsPerHour="52.99239890693919"/>
  <flow id="JF31842" begin="1140" fromJunction="J2" toJunction="J4" end="1200" vehsPerHour="16.298262227471955"/>
  <flow id="JF31843" begin="1140" fromJunction="J3" toJunction="J0" end="1200" vehsPerHour="66.10502156026256"/>
  <flow id="JF31844" begin="1140" fromJunction="J3" toJunction="J2" end="1200" vehsPerHour="131.99835677035142"/>
  <flow id="JF31845" begin="1140" fromJunction="J3" toJunction="J4" end="1200" vehsPerHour="66.54358562364033"/>
  <flow id="JF31846" begin="1140" fromJunction="J4" toJunction="J0" end="1200" vehsPerHour="56.02616194625931"/>
  <flow id="JF31847" begin="1140" fromJunction="J4" toJunction="J2" end="1200" vehsPerHour="115.19833507507255"/>
  <flow id="JF31848" begin="1140" fromJunction="J4" toJunction="J3" end="1200" vehsPerHour="40.419511107997955"/>
  <flow id="JF31849" begin="1200" fromJunction="J0" toJunction="J2" end="1260" vehsPerHour="92.7544689303371"/>
  <flow id="JF31850" begin="1200" fromJunction="J0" toJunction="J3" end="1260" vehsPerHour="134.41158108073407"/>
  <flow id="JF31851" begin="1200" fromJunction="J2" toJunction="J0" end="1260" vehsPerHour="73.93096837333698"/>
  <flow id="JF31852" begin="1200" fromJunction="J2" toJunction="J4" end="1260" vehsPerHour="32.916414652048125"/>
  <flow id="JF31853" begin="1200" fromJunction="J3" toJunction="J2" end="1260" vehsPerHour="69.93867050235109"/>
  <flow id="JF31854" begin="1200" fromJunction="J4" toJunction="J0" end="1260" vehsPerHour="5.0090520894879775"/>
  <flow id="JF31855" begin="1200" fromJunction="J4" toJunction="J2" end="1260" vehsPerHour="28.882526334541772"/>
  <flow id="JF31856" begin="1200" fromJunction="J4" toJunction="J3" end="1260" vehsPerHour="55.42210852520288"/>
  <flow id="JF31857" begin="1260" fromJunction="J0" toJunction="J2" end="1320" vehsPerHour="96.19000687206047"/>
  <flow id="JF31858" begin="1260" fromJunction="J0" toJunction="J3" end="1320" vehsPerHour="100.83007800827141"/>
  <flow id="JF31859" begin="1260" fromJunction="J0" toJunction="J4" end="1320" vehsPerHour="128.08659896325767"/>
  <flow id="JF31860" begin="1260" fromJunction="J2" toJunction="J0" end="1320" vehsPerHour="89.15534598032632"/>
  <flow id="JF31861" begin="1260" fromJunction="J2" toJunction="J3" end="1320" vehsPerHour="81.50991586656596"/>
  <flow id="JF31862" begin="1260" fromJunction="J2" toJunction="J4" end="1320" vehsPerHour="106.31063139112447"/>
  <flow id="JF31863" begin="1260" fromJunction="J3" toJunction="J2" end="1320" vehsPerHour="47.66710448030816"/>
  <flow id="JF31864" begin="1260" fromJunction="J3" toJunction="J4" end="1320" vehsPerHour="136.2260321579353"/>
  <flow id="JF31865" begin="1260" fromJunction="J4" toJunction="J2" end="1320" vehsPerHour="87.44839562567488"/>
  <flow id="JF31866" begin="1320" fromJunction="J0" toJunction="J2" end="1380" vehsPerHour="102.35235504009445"/>
  <flow id="JF31867" begin="1320" fromJunction="J0" toJunction="J3" end="1380" vehsPerHour="10.97243547962277"/>
  <flow id="JF31868" begin="1320" fromJunction="J2" toJunction="J3" end="1380" vehsPerHour="115.48638850624417"/>
  <flow id="JF31869" begin="1320" fromJunction="J2" toJunction="J4" end="1380" vehsPerHour="101.81616413219687"/>
  <flow id="JF31870" begin="1320" fromJunction="J3" toJunction="J2" end="1380" vehsPerHour="62.273550061476975"/>
  <flow id="JF31871" begin="1320" fromJunction="J3" toJunction="J4" end="1380" vehsPerHour="45.555450112400756"/>
  <flow id="JF31872" begin="1320" fromJunction="J4" toJunction="J2" end="1380" vehsPerHour="134.1244872624306"/>
  <flow id="JF31873" begin="1320" fromJunction="J4" toJunction="J3" end="1380" vehsPerHour="13.604754985434065"/>
  <flow id="JF31874" begin="1380" fromJunction="J0" toJunction="J2" end="1440" vehsPerHour="110.0637959834291"/>
  <flow id="JF31875" begin="1380" fromJunction="J2" toJunction="J3" end="1440" vehsPerHour="133.17141770216674"/>
  <flow id="JF31876" begin="1380" fromJunction="J2" toJunction="J4" end="1440" vehsPerHour="80.70379008139004"/>
  <flow id="JF31877" begin="1380" fromJunction="J3" toJunction="J0" end="1440" vehsPerHour="75.60355346379673"/>
  <flow id="JF31878" begin="1380" fromJunction="J3" toJunction="J2" end="1440" vehsPerHour="12.68088865850857"/>
  <flow id="JF31879" begin="1380" fromJunction="J3" toJunction="J4" end="1440" vehsPerHour="16.0093642567538"/>
  <flow id="JF31880" begin="1380" fromJunction="J4" toJunction="J2" end="1440" vehsPerHour="34.89613717930537"/>
  <flow id="JF31881" begin="1440" fromJunction="J0" toJunction="J2" end="1500" vehsPerHour="75.08130670036888"/>
  <flow id="JF31882" begin="1440" fromJunction="J0" toJunction="J3" end="1500" vehsPerHour="102.7052498596917"/>
  <flow id="JF31883" begin="1440" fromJunction="J0" toJunction="J4" end="1500" vehsPerHour="67.20987626717343"/>
  <flow id="JF31884" begin="1440" fromJunction="J2" toJunction="J3" end="1500" vehsPerHour="54.352948191853656"/>
  <flow id="JF31885" begin="1440" fromJunction="J3" toJunction="J4" end="1500" vehsPerHour="40.86626947611001"/>
  <flow id="JF31886" begin="1440" fromJunction="J4" toJunction="J2" end="1500" vehsPerHour="25.932910463662335"/>
  <flow id="JF31887" begin="1440" fromJunction="J4" toJunction="J3" end="1500" vehsPerHour="104.5642439091503"/>
  <flow id="JF31888" begin="1500" fromJunction="J0" toJunction="J3" end="1560" vehsPerHour="131.0248677495743"/>
  <flow id="JF31889" begin="1500" fromJunction="J0" toJunction="J4" end="1560" vehsPerHour="31.008022653718612"/>
  <flow id="JF31890" begin="1500" fromJunction="J2" toJunction="J0" end="1560" vehsPerHour="103.90315607999077"/>
  <flow id="JF31891" begin="1500" fromJunction="J2" toJunction="J3" end="1560" vehsPerHour="98.88312779846248"/>
  <flow id="JF31892" begin="1500" fromJunction="J3" toJunction="J0" end="1560" vehsPerHour="74.64423664589138"/>
  <flow id="JF31893" begin="1500" fromJunction="J3" toJunction="J2" end="1560" vehsPerHour="27.589427039303406"/>
  <flow id="JF31894" begin="1500" fromJunction="J3" toJunction="J4" end="1560" vehsPerHour="22.613803312353923"/>
  <flow id="JF31895" begin="1500" fromJunction="J4" toJunction="J0" end="1560" vehsPerHour="88.5460074990618"/>
  <flow id="JF31896" begin="1500" fromJunction="J4" toJunction="J2" end="1560" vehsPerHour="62.62276645904887"/>
  <flow id="JF31897" begin="1500" fromJunction="J4" toJunction="J3" end="1560" vehsPerHour="55.915244302227634"/>
  <flow id="JF31898" begin="1560" fromJunction="J0" toJunction="J4" end="1620" vehsPerHour="35.44037684188857"/>
  <flow id="JF31899" begin="1560" fromJunction="J2" toJunction="J0" end="1620" vehsPerHour="67.27618798321099"/>
  <flow id="JF31900" begin="1560" fromJunction="J2" toJunction="J3" end="1620" vehsPerHour="16.458364301203297"/>
  <flow id="JF31901" begin="1560" fromJunction="J3" toJunction="J0" end="1620" vehsPerHour="91.14601731370897"/>
  <flow id="JF31902" begin="1560" fromJunction="J3" toJunction="J2" end="1620" vehsPerHour="58.55928160033763"/>
  <flow id="JF31903" begin="1560" fromJunction="J4" toJunction="J0" end="1620" vehsPerHour="101.17669858370299"/>
  <flow id="JF31904" begin="1620" fromJunction="J0" toJunction="J3" end="1680" vehsPerHour="84.54093399829172"/>
  <flow id="JF31905" begin="1620" fromJunction="J0" toJunction="J4" end="1680" vehsPerHour="38.68175114538179"/>
  <flow id="JF31906" begin="1620" fromJunction="J2" toJunction="J0" end="1680" vehsPerHour="23.79387375620866"/>
  <flow id="JF31907" begin="1620" fromJunction="J2" toJunction="J3" end="1680" vehsPerHour="93.11252986358"/>
  <flow id="JF31908" begin="1620" fromJunction="J2" toJunction="J4" end="1680" vehsPerHour="65.66403575357326"/>
  <flow id="JF31909" begin="1620" fromJunction="J3" toJunction="J4" end="1680" vehsPerHour="49.258576484672496"/>
  <flow id="JF31910" begin="1620" fromJunction="J4" toJunction="J0" end="1680" vehsPerHour="79.21178164707472"/>
  <flow id="JF31911" begin="1620" fromJunction="J4" toJunction="J2" end="1680" vehsPerHour="72.84620457689185"/>
  <flow id="JF31912" begin="1620" fromJunction="J4" toJunction="J3" end="1680" vehsPerHour="49.46765537517177"/>
  <flow id="JF31913" begin="1680" fromJunction="J0" toJunction="J2" end="1740" vehsPerHour="46.65404961822307"/>
  <flow id="JF31914" begin="1680" fromJunction="J2" toJunction="J0" end="1740" vehsPerHour="112.22962325964362"/>
  <flow id="JF31915" begin="1680" fromJunction="J2" toJunction="J3" end="1740" vehsPerHour="125.86663208370484"/>
  <flow id="JF31916" begin="1680" fromJunction="J2" toJunction="J4" end="1740" vehsPerHour="108.21104624562281"/>
  <flow id="JF31917" begin="1680" fromJunction="J3" toJunction="J0" end="1740" vehsPerHour="136.31561298373032"/>
  <flow id="JF31918" begin="1680" fromJunction="J3" toJunction="J2" end="1740" vehsPerHour="120.29097923144842"/>
  <flow id="JF31919" begin="1680" fromJunction="J4" toJunction="J0" end="1740" vehsPerHour="77.65776185417812"/>
  <flow id="JF31920" begin="1680" fromJunction="J4" toJunction="J3" end="1740" vehsPerHour="37.80457236992898"/>
  <flow id="JF31921" begin="1740" fromJunction="J0" toJunction="J2" end="1800" vehsPerHour="113.45230901147127"/>
  <flow id="JF31922" begin="1740" fromJunction="J0" toJunction="J3" end="1800" vehsPerHour="68.7525977375045"/>
  <flow id="JF31923" begin="1740" fromJunction="J2" toJunction="J0" end="1800" vehsPerHour="136.3715418811335"/>
  <flow id="JF31924" begin="1740" fromJunction="J2" toJunction="J4" end="1800" vehsPerHour="114.66547296436289"/>
  <flow id="JF31925" begin="1740" fromJunction="J3" toJunction="J0" end="1800" vehsPerHour="11.226581116795295"/>
  <flow id="JF31926" begin="1740" fromJunction="J3" toJunction="J4" end="1800" vehsPerHour="1.7805628897616685"/>
  <flow id="JF31927" begin="1740" fromJunction="J4" toJunction="J2" end="1800" vehsPerHour="108.73539679144383"/>
  <flow id="JF31928" begin="1800" fromJunction="J0" toJunction="J2" end="1860" vehsPerHour="57.946918925279924"/>
  <flow id="JF31929" begin="1800" fromJunction="J0" toJunction="J3" end="1860" vehsPerHour="125.34504806465756"/>
  <flow id="JF31930" begin="1800" fromJunction="J0" toJunction="J4" end="1860" vehsPerHour="73.88011339195822"/>
  <flow id="JF31931" begin="1800" fromJunction="J2" toJunction="J3" end="1860" vehsPerHour="17.073914951115125"/>
  <flow id="JF31932" begin="1800" fromJunction="J3" toJunction="J0" end="1860" vehsPerHour="73.13842403607097"/>
  <flow id="JF31933" begin="1800" fromJunction="J3" toJunction="J2" end="1860" vehsPerHour="57.34055714643751"/>
  <flow id="JF31934" begin="1800" fromJunction="J3" toJunction="J4" end="1860" vehsPerHour="77.33407636684767"/>
  <flow id="JF31935" begin="1800" fromJunction="J4" toJunction="J0" end="1860" vehsPerHour="121.83268850778082"/>
  <flow id="JF31936" begin="1800" fromJunction="J4" toJunction="J2" end="1860" vehsPerHour="70.17373398732558"/>
  <flow id="JF31937" begin="1800" fromJunction="J4" toJunction="J3" end="1860" vehsPerHour="39.7588865746877"/>
  <flow id="JF31938" begin="1860" fromJunction="J0" toJunction="J4" end="1920" vehsPerHour="135.806528491168"/>
  <flow id="JF31939" begin="1860" fromJunction="J2" toJunction="J0" end="1920" vehsPerHour="34.42531799892789"/>
  <flow id="JF31940" begin="1860" fromJunction="J2" toJunction="J3" end="1920" vehsPerHour="119.80261240691543"/>
  <flow id="JF31941" begin="1860" fromJunction="J2" toJunction="J4" end="1920" vehsPerHour="13.344152385042435"/>
  <flow id="JF31942" begin="1860" fromJunction="J3" toJunction="J2" end="1920" vehsPerHour="47.641495092225306"/>
  <flow id="JF31943" begin="1860" fromJunction="J3" toJunction="J4" end="1920" vehsPerHour="86.64509769727546"/>
  <flow id="JF31944" begin="1860" fromJunction="J4" toJunction="J0" end="1920" vehsPerHour="23.696580947406176"/>