<?xml version="1.0" encoding="UTF-8"?>
<routes xmlns:xsi="http://www.w3.org/2001/XMLSchema-instance" xsi:noNamespaceSchemaLocation="http://sumo.dlr.de/xsd/routes_file.xsd">
  <flow id="JF33079" begin="0" fromJunction="J0" toJunction="J2" end="60" vehsPerHour="111.9788466450235"/>
  <flow id="JF33080" begin="0" fromJunction="J0" toJunction="J4" end="60" vehsPerHour="38.34808343017612"/>
  <flow id="JF33081" begin="0" fromJunction="J2" toJunction="J3" end="60" vehsPerHour="118.21156436699783"/>
  <flow id="JF33082" begin="0" fromJunction="J2" toJunction="J4" end="60" vehsPerHour="115.33896785242165"/>
  <flow id="JF33083" begin="0" fromJunction="J3" toJunction="J0" end="60" vehsPerHour="113.2453011142815"/>
  <flow id="JF33084" begin="0" fromJunction="J3" toJunction="J4" end="60" vehsPerHour="52.86459582795478"/>
  <flow id="JF33085" begin="0" fromJunction="J4" toJunction="J2" end="60" vehsPerHour="42.05195357407964"/>
  <flow id="JF33086" begin="60" fromJunction="J0" toJunction="J2" end="120" vehsPerHour="84.80327652753527"/>
  <flow id="JF33087" begin="60" fromJunction="J0" toJunction="J3" end="120" vehsPerHour="48.58159884415427"/>
  <flow id="JF33088" begin="60" fromJunction="J2" toJunction="J3" end="120" vehsPerHour="73.23274857002271"/>
  <flow id="JF33089" begin="60" fromJunction="J3" toJunction="J2" end="120" vehsPerHour="108.69883437871039"/>
  <flow id="JF33090" begin="60" fromJunction="J4" toJunction="J0" end="120" vehsPerHour="82.1187417956669"/>
  <flow id="JF33091" begin="60" fromJunction="J4" toJunction="J2" end="120" vehsPerHour="49.101175410764895"/>
  <flow id="JF33092" begin="120" fromJunction="J0" toJunction="J2" end="180" vehsPerHour="69.76921108985185"/>
  <flow id="JF33093" begin="120" fromJunction="J0" toJunction="J4" end="180" vehsPerHour="23.827176372598526"/>
  <flow id="JF33094" begin="120" fromJunction="J2" toJunction="J0" end="180" vehsPerHour="90.19824283623831"/>
  <flow id="JF33095" begin="120" fromJunction="J2" toJunction="J3" end="180" vehsPerHour="36.58806613977943"/>
  <flow id="JF33096" begin="120" fromJunction="J2" toJunction="J4" end="180" vehsPerHour="112.11698232930695"/>
  <flow id="JF33097" begin="120" fromJunction="J3" toJunction="J0" end="180" vehsPerHour="80.37658988875813"/>
  <flow id="JF33098" begin="120" fromJunction="J3" toJunction="J2" end="180" vehsPerHour="109.08551767582432"/>
  <flow id="JF33099" begin="120" fromJunction="J4" toJunction="J0" end="180" vehsPerHour="29.945365487423768"/>
  <flow id="JF33100" begin="120" fromJunction="J4" toJunction="J3" end="180" vehsPerHour="91.30193583954399"/>
  <flow id="JF33101" begin="180" fromJunction="J0" toJunction="J2" end="240" vehsPerHour="33.71819999209094"/>
  <flow id="JF33102" begin="180" fromJunction="J0" toJunction="J3" end="240" vehsPerHour="30.309137674591174"/>
  <flow id="JF33103" begin="180" fromJunction="J2" toJunction="J0" end="240" vehsPerHour="57.467519142712334"/>
  <flow id="JF33104" begin="180" fromJunction="J2" toJunction="J3" end="240" vehsPerHour="40.215006353981806"/>
  <flow id="JF33105" begin="180" fromJunction="J2" toJunction="J4" end="240" vehsPerHour="75.68604394393361"/>
  <flow id="JF33106" begin="180" fromJunction="J3" toJunction="J0" end="240" vehsPerHour="135.37042868577805"/>
  <flow id="JF33107" begin="180" fromJunction="J4" toJunction="J0" end="240" vehsPerHour="104.50547450341591"/>
  <flow id="JF33108" begin="180" fromJunction="J4" toJunction="J2" end="240" vehsPerHour="67.01035367834746"/>
  <flow id="JF33109" begin="180" fromJunction="J4" toJunction="J3" end="240" vehsPerHour="1.5892579474730213"/>
  <flow id="JF33110" begin="240" fromJunction="J0" toJunction="J2" end="300" vehsPerHour="22.567865152634372"/>
  <flow id="JF33111" begin="240" fromJunction="J0" toJunction="J3" end="300" vehsPerHour="4.785208483617677"/>
  <flow id="JF33112" begin="240" fromJunction="J0" toJunction="J4" end="300" vehsPerHour="103.9400170120417"/>
  <flow id="JF33113" begin="240" fromJunction="J2" toJunction="J0" end="300" vehsPerHour="135.51356054909536"/>
  <flow id="JF33114" begin="240" fromJunction="J2" toJunction="J3" end="300" vehsPerHour="52.457974941418904"/>
  <flow id="JF33115" begin="240" fromJunction="J2" toJunction="J4" end="300" vehsPerHour="61.578257542099614"/>
  <flow id="JF33116" begin="240" fromJunction="J3" toJunction="J2" end="300" vehsPerHour="125.87255633055095"/>
  <flow id="JF33117" begin="240" fromJunction="J3" toJunction="J4" end="300" vehsPerHour="84.16998718215989"/>
  <flow id="JF33118" begin="240" fromJunction="J4" toJunction="J0" end="300" vehsPerHour="13.427069472244531"/>
  <flow id="JF33119" begin="240" fromJunction="J4" toJunction="J2" end="300" vehsPerHour="80.58800265515593"/>
  <flow id="JF33120" begin="240" fromJunction="J4" toJunction="J3" end="300" vehsPerHour="62.41660792191698"/>
  <flow id="JF33121" begin="300" fromJunction="J0" toJunction="J2" end="360" vehsPerHour="61.479999270511755"/>
  <flow id="JF33122" begin="300" fromJunction="J0" toJunction="J3" end="360" vehsPerHour="24.632452332381902"/>
  <flow id="JF33123" begin="300" fromJunction="J0" toJunction="J4" end="360" vehsPerHour="51.45826706111338"/>
  <flow id="JF33124" begin="300" fromJunction="J2" toJunction="J0" end="360" vehsPerHour="14.931791504955827"/>
  <flow id="JF33125" begin="300" fromJunction="J2" toJunction="J3" end="360" vehsPerHour="98.33000696867957"/>
  <flow id="JF33126" begin="300" fromJunction="J2" toJunction="J4" end="360" vehsPerHour="92.59735157408026"/>
  <flow id="JF33127" begin="300" fromJunction="J3" toJunction="J0" end="360" vehsPerHour="49.54090536453648"/>
  <flow id="JF33128" begin="300" fromJunction="J3" toJunction="J2" end="360" vehsPerHour="64.11593194412524"/>
  <flow id="JF33129" begin="300" fromJunction="J3" toJunction="J4" end="360" vehsPerHour="113.21204369847925"/>
  <flow id="JF33130" begin="300" fromJunction="J4" toJunction="J2" end="360" vehsPerHour="121.16652180213157"/>
  <flow id="JF33131" begin="300" fromJunction="J4" toJunction="J3" end="360" vehsPerHour="97.22727391199226"/>
  <flow id="JF33132" begin="360" fromJunction="J0" toJunction="J2" end="420" vehsPerHour="66.37458322899637"/>
  <flow id="JF33133" begin="360" fromJunction="J0" toJunction="J3" end="420" vehsPerHour="90.6725766336707"/>
  <flow id="JF33134" begin="360" fromJunction="J2" toJunction="J0" end="420" vehsPerHour="75.43820479260106"/>
  <flow id="JF33135" begin="360" fromJunction="J2" toJunction="J4" end="420" vehsPerHour="59.154090138595095"/>
  <flow id="JF33136" begin="360" fromJunction="J3" toJunction="J4" end="420" vehsPerHour="71.62622940729662"/>
  <flow id="JF33137" begin="360" fromJunction="J4" toJunction="J0" end="420" vehsPerHour="30.15416821800911"/>
  <flow id="JF33138" begin="360" fromJunction="J4" toJunction="J2" end="420" vehsPerHour="35.10404107008372"/>
  <flow id="JF33139" begin="360" fromJunction="J4" toJunction="J3" end="420" vehsPerHour="41.52936102236026"/>
  <flow id="JF33140" begin="420" fromJunction="J2" toJunction="J0" end="480" vehsPerHour="59.21531190951053"/>
  <flow id="JF33141" begin="420" fromJunction="J2" toJunction="J3" end="480" vehsPerHour="82.55132554137693"/>
  <flow id="JF33142" begin="420" fromJunction="J2" toJunction="J4" end="480" vehsPerHour="24.029553135228916"/>
  <flow id="JF33143" begin="420" fromJunction="J3" toJunction="J0" end="480" vehsPerHour="71.4148341950675"/>
  <flow id="JF33144" begin="420" fromJunction="J3" toJunction="J4" end="480" vehsPerHour="101.8126477127199"/>
  <flow id="JF33145" begin="420" fromJunction="J4" toJunction="J2" end="480" vehsPerHour="42.949916595978394"/>
  <flow id="JF33146" begin="420" fromJunction="J4" toJunction="J3" end="480" vehsPerHour="108.86538923694026"/>
  <flow id="JF33147" begin="480" fromJunction="J0" toJunction="J2" end="540" vehsPerHour="76.44458615674137"/>
  <flow id="JF33148" begin="480" fromJunction="J0" toJunction="J3" end="540" vehsPerHour="87.61146550666574"/>
  <flow id="JF33149" begin="480" fromJunction="J0" toJunction="J4" end="540" vehsPerHour="59.898199003426406"/>
  <flow id="JF33150" begin="480" fromJunction="J2" toJunction="J0" end="540" vehsPerHour="111.45599028929367"/>
  <flow id="JF33151" begin="480" fromJunction="J2" toJunction="J3" end="540" vehsPerHour="6.55986279257466"/>
  <flow id="JF33152" begin="480" fromJunction="J2" toJunction="J4" end="540" vehsPerHour="112.2192881879512"/>
  <flow id="JF33153" begin="480" fromJunction="J3" toJunction="J0" end="540" vehsPerHour="102.42785496244977"/>
  <flow id="JF33154" begin="480" fromJunction="J3" toJunction="J2" end="540" vehsPerHour="0.2692012978435497"/>
  <flow id="JF33155" begin="480" fromJunction="J4" toJunction="J0" end="540" vehsPerHour="41.04726332690366"/>
  <flow id="JF33156" begin="480" fromJunction="J4" toJunction="J2" end="540" vehsPerHour="94.35861432861319"/>
  <flow id="JF33157" begin="480" fromJunction="J4" toJunction="J3" end="540" vehsPerHour="135.27460459507628"/>
  <flow id="JF33158" begin="540" fromJunction="J0" toJunction="J2" end="600" vehsPerHour="44.44096239579315"/>
  <flow id="JF33159" begin="540" fromJunction="J0" toJunction="J4" end="600" vehsPerHour="65.66433098284266"/>
  <flow id="JF33160" begin="540" fromJunction="J2" toJunction="J4" end="600" vehsPerHour="106.75989626172728"/>
  <flow id="JF33161" begin="540" fromJunction="J3" toJunction="J0" end="600" vehsPerHour="18.03373793971391"/>
  <flow id="JF33162" begin="540" fromJunction="J3" toJunction="J2" end="600" vehsPerHour="118.43849128418759"/>
  <flow id="JF33163" begin="540" fromJunction="J4" toJunction="J0" end="600" vehsPerHour="82.85338229541742"/>
  <flow id="JF33164" begin="540" fromJunction="J4" toJunction="J2" end="600" vehsPerHour="69.27852475549237"/>
  <flow id="JF33165" begin="600" fromJunction="J0" toJunction="J2" end="660" vehsPerHour="22.207970180808935"/>
  <flow id="JF33166" begin="600" fromJunction="J0" toJunction="J3" end="660" vehsPerHour="47.6238472432469"/>
  <flow id="JF33167" begin="600" fromJunction="J2" toJunction="J3" end="660" vehsPerHour="24.19970657925415"/>
  <flow id="JF33168" begin="600" fromJunction="J2" toJunction="J4" end="660" vehsPerHour="53.650257403428625"/>
  <flow id="JF33169" begin="600" fromJunction="J3" toJunction="J0" end="660" vehsPerHour="82.5364074038593"/>
  <flow id="JF33170" begin="600" fromJunction="J3" toJunction="J2" end="660" vehsPerHour="49.43677033455208"/>
  <flow id="JF33171" begin="600" fromJunction="J3" toJunction="J4" end="660" vehsPerHour="111.44643990000255"/>
  <flow id="JF33172" begin="600" fromJunction="J4" toJunction="J0" end="660" vehsPerHour="87.88379907428846"/>
  <flow id="JF33173" begin="600" fromJunction="J4" toJunction="J2" end="660" vehsPerHour="95.29439397516786"/>
  <flow id="JF33174" begin="660" fromJunction="J0" toJunction="J3" end="720" vehsPerHour="125.87161398877313"/>
  <flow id="JF33175" begin="660" fromJunction="J2" toJunction="J0" end="720" vehsPerHour="119.06616825203245"/>
  <flow id="JF33176" begin="660" fromJunction="J2" toJunction="J3" end="720" vehsPerHour="102.11024080821467"/>
  <flow id="JF33177" begin="660" fromJunction="J2" toJunction="J4" end="720" vehsPerHour="117.38060479842892"/>
  <flow id="JF33178" begin="660" fromJunction="J3" toJunction="J2" end="720" vehsPerHour="18.976379576917942"/>
  <flow id="JF33179" begin="660" fromJunction="J3" toJunction="J4" end="720" vehsPerHour="50.8151784847548"/>
  <flow id="JF33180" begin="660" fromJunction="J4" toJunction="J0" end="720" vehsPerHour="89.84516634815364"/>
  <flow id="JF33181" begin="660" fromJunction="J4" toJunction="J2" end="720" vehsPerHour="36.50354379819545"/>
  <flow id="JF33182" begin="660" fromJunction="J4" toJunction="J3" end="720" vehsPerHour="32.04832980484438"/>
  <flow id="JF33183" begin="720" fromJunction="J0" toJunction="J2" end="780" vehsPerHour="3.843962942052034"/>
  <flow id="JF33184" begin="720" fromJunction="J0" toJunction="J3" end="780" vehsPerHour="51.70817955684224"/>
  <flow id="JF33185" begin="720" fromJunction="J3" toJunction="J0" end="780" vehsPerHour="2.9831600943713004"/>
  <flow id="JF33186" begin="720" fromJunction="J3" toJunction="J2" end="780" vehsPerHour="76.16201639978196"/>
  <flow id="JF33187" begin="720" fromJunction="J3" toJunction="J4" end="780" vehsPerHour="22.064247022094353"/>
  <flow id="JF33188" begin="720" fromJunction="J4" toJunction="J0" end="780" vehsPerHour="64.40944083294099"/>
  <flow id="JF33189" begin="720" fromJunction="J4" toJunction="J3" end="780" vehsPerHour="13.12919244698343"/>
  <flow id="JF33190" begin="780" fromJunction="J0" toJunction="J2" end="840" vehsPerHour="79.34058497262235"/>
  <flow id="JF33191" begin="780" fromJunction="J0" toJunction="J3" end="840" vehsPerHour="97.7969260599853"/>
  <flow id="JF33192" begin="780" fromJunction="J0" toJunction="J4" end="840" vehsPerHour="91.19609589115866"/>
  <flow id="JF33193" begin="780" fromJunction="J2" toJunction="J0" end="840" vehsPerHour="35.39014813752247"/>
  <flow id="JF33194" begin="780" fromJunction="J2" toJunction="J4" end="840" vehsPerHour="134.9705810275011"/>
  <flow id="JF33195" begin="780" fromJunction="J3" toJunction="J2" end="840" vehsPerHour="131.13828936284943"/>
  <flow id="JF33196" begin="780" fromJunction="J3" toJunction="J4" end="840" vehsPerHour="48.209981784971696"/>
  <flow id="JF33197" begin="780" fromJunction="J4" toJunction="J2" end="840" vehsPerHour="57.068302426301116"/>
  <flow id="JF33198" begin="780" fromJunction="J4" toJunction="J3" end="840" vehsPerHour="19.64593780743911"/>
  <flow id="JF33199" begin="840" fromJunction="J0" toJunction="J2" end="900" vehsPerHour="125.94926386585456"/>
  <flow id="JF33200" begin="840" fromJunction="J2" toJunction="J3" end="900" vehsPerHour="3.8531994555182587"/>
  <flow id="JF33201" begin="840" fromJunction="J3" toJunction="J2" end="900" vehsPerHour="8.748361264003522"/>
  <flow id="JF33202" begin="840" fromJunction="J4" toJunction="J0" end="900" vehsPerHour="54.50215780992436"/>
  <flow id="JF33203" begin="840" fromJunction="J4" toJunction="J2" end="900" vehsPerHour="38.707500529968776"/>
  <flow id="JF33204" begin="840" fromJunction="J4" toJunction="J3" end="900" vehsPerHour="48.959050880631374"/>
  <flow id="JF33205" begin="900" fromJunction="J0" toJunction="J2" end="960" vehsPerHour="72.34627836486227"/>
  <flow id="JF33206" begin="900" fromJunction="J0" toJunction="J3" end="960" vehsPerHour="44.425011236606174"/>
  <flow id="JF33207" begin="900" fromJunction="J0" toJunction="J4" end="960" vehsPerHour="119.6061868520414"/>
  <flow id="JF33208" begin="900" fromJunction="J2" toJunction="J0" end="960" vehsPerHour="4.76894011733362"/>
  <flow id="JF33209" begin="900" fromJunction="J2" toJunction="J3" end="960" vehsPerHour="86.16432799964659"/>
  <flow id="JF33210" begin="900" fromJunction="J2" toJunction="J4" end="960" vehsPerHour="78.67739499883434"/>
  <flow id="JF33211" begin="900" fromJunction="J3" toJunction="J0" end="960" vehsPerHour="111.12187953311314"/>
  <flow id="JF33212" begin="900" fromJunction="J3" toJunction="J4" end="960" vehsPerHour="4.96373394089061"/>
  <flow id="JF33213" begin="900" fromJunction="J4" toJunction="J0" end="960" vehsPerHour="83.02430980183041"/>
  <flow id="JF33214" begin="900" fromJunction="J4" toJunction="J2" end="960" vehsPerHour="49.71180881697109"/>
  <flow id="JF33215" begin="900" fromJunction="J4" toJunction="J3" end="960" vehsPerHour="22.10959598994553"/>
  <flow id="JF33216" begin="960" fromJunction="J0" toJunction="J3" end="1020" vehsPerHour="129.98553297454214"/>
  <flow id="JF33217" begin="960" fromJunction="J0" toJunction="J4" end="1020" vehsPerHour="95.33809884563074"/>
  <flow id="JF33218" begin="960" fromJunction="J3" toJunction="J0" end="1020" vehsPerHour="94.9944573380546"/>
  <flow id="JF33219" begin="960" fromJunction="J3" toJunction="J2" end="1020" vehsPerHour="62.418156819772946"/>
  <flow id="JF33220" begin="960" fromJunction="J3" toJunction="J4" end="1020" vehsPerHour="89.51880446141575"/>
  <flow id="JF33221" begin="960" fromJunction="J4" toJunction="J0" end="1020" vehsPerHour="12.668157409683173"/>
  <flow id="JF33222" begin="960" fromJunction="J4" toJunction="J2" end="1020" vehsPerHour="86.04584879818269"/>
  <flow id="JF33223" begin="1020" fromJunction="J0" toJunction="J2" end="1080" vehsPerHour="34.412795557492515"/>
  <flow id="JF33224" begin="1020" fromJunction="J0" toJunction="J4" end="1080" vehsPerHour="100.37333084326109"/>
  <flow id="JF33225" begin="1020" fromJunction="J2" toJunction="J3" end="1080" vehsPerHour="81.89513397903376"/>
  <flow id="JF33226" begin="1020" fromJunction="J2" toJunction="J4" end="1080" vehsPerHour="63.18841396541243"/>
  <flow id="JF33227" begin="1020" fromJunction="J3" toJunction="J0" end="1080" vehsPerHour="105.55449157436091"/>
  <flow id="JF33228" begin="1020" fromJunction="J3" toJunction="J2" end="1080" vehsPerHour="133.9787987471847"/>
  <flow id="JF33229" begin="1020" fromJunction="J3" toJunction="J4" end="1080" vehsPerHour="52.34316276477664"/>
  <flow id="JF33230" begin="1020" fromJunction="J4" toJunction="J0" end="1080" vehsPerHour="45.54553931476199"/>
  <flow id="JF33231" begin="1020" fromJunction="J4" toJunction="J2" end="1080" vehsPerHour="34.541570988038316"/>
  <flow id="JF33232" begin="1080" fromJunction="J0" toJunction="J2" end="1140" vehsPerHour="33.89033438783612"/>
  <flow id="JF33233" begin="1080" fromJunction="J0" toJunction="J4" end="1140" vehsPerHour="109.78031436240659"/>
  <flow id="JF33234" begin="1080" fromJunction="J2" toJunction="J3" end="1140" vehsPerHour="100.42985232653656"/>
  <flow id="JF33235" begin="1080" fromJunction="J3" toJunction="J0" end="1140" vehsPerHour="123.15396595385015"/>
  <flow id="JF33236" begin="1080" fromJunction="J3" toJunction="J2" end="1140" vehsPerHour="102.72433969567267"/>
  <flow id="JF33237" begin="1080" fromJunction="J3" toJunction="J4" end="1140" vehsPerHour="98.19951441414918"/>
  <flow id="JF33238" begin="1080" fromJunction="J4" toJunction="J0" end="1140" vehsPerHour="94.34865661666802"/>
  <flow id="JF33239" begin="1080" fromJunction="J4" toJunction="J2" end="1140" vehsPerHour="34.568451280118566"/>
  <flow id="JF33240" begin="1080" fromJunction="J4" toJunction="J3" end="1140" vehsPerHour="136.19727414527713"/>
  <flow id="JF33241" begin="1140" fromJunction="J0" toJunction="J3" end="1200" vehsPerHour="12.215330129492635"/>
  <flow id="JF33242" begin="1140" fromJunction="J0" toJunction="J4" end="1200" vehsPerHour="20.199626202531196"/>
  <flow id="JF33243" begin="1140" fromJunction="J2" toJunction="J3" end="1200" vehsPerHour="42.94812031477317"/>
  <flow id="JF33244" begin="1140" fromJunction="J2" toJunction="J4" end="1200" vehsPerHour="47.42405536953826"/>
  <flow id="JF33245" begin="1140" fromJunction="J3" toJunction="J2" end="1200" vehsPerHour="18.840181966732736"/>
  <flow id="JF33246" begin="1140" fromJunction="J3" toJunction="J4" end="1200" vehsPerHour="57.37934462260821"/>
  <flow id="JF33247" begin="1140" fromJunction="J4" toJunction="J0" end="1200" vehsPerHour="21.150965764806013"/>
  <flow id="JF33248" begin="1200" fromJunction="J0" toJunction="J2" end="1260" vehsPerHour="54.64138719967481"/>
  <flow id="JF33249" begin="1200" fromJunction="J0" toJunction="J3" end="1260" vehsPerHour="7.00653293252751"/>
  <flow id="JF33250" begin="1200" fromJunction="J0" toJunction="J4" end="1260" vehsPerHour="91.58869986704828"/>
  <flow id="JF33251" begin="1200" fromJunction="J2" toJunction="J0" end="1260" vehsPerHour="117.4794610203528"/>
  <flow id="JF33252" begin="1200" fromJunction="J2" toJunction="J3" end="1260" vehsPerHour="70.3692978761935"/>
  <flow id="JF33253" begin="1200" fromJunction="J2" toJunction="J4" end="1260" vehsPerHour="79.02151761391964"/>
  <flow id="JF33254" begin="1200" fromJunction="J3" toJunction="J0" end="1260" vehsPerHour="98.89105644142383"/>
  <flow id="JF33255" begin="1200" fromJunction="J3" toJunction="J2" end="1260" vehsPerHour="108.58674354558222"/>
  <flow id="JF33256" begin="1200" fromJunction="J3" toJunction="J4" end="1260" vehsPerHour="14.599154955589487"/>
  <flow id="JF33257" begin="1200" fromJunction="J4" toJunction="J0" end="1260" vehsPerHour="7.931999830457885"/>
  <flow id="JF33258" begin="1200" fromJunction="J4" toJunction="J2" end="1260" vehsPerHour="52.20537007414558"/>
  <flow id="JF33259" begin="1200" fromJunction="J4" toJunction="J3" end="1260" vehsPerHour="37.1037773800109"/>
  <flow id="JF33260" begin="1260" fromJunction="J0" toJunction="J3" end="1320" vehsPerHour="64.64121589921534"/>
  <flow id="JF33261" begin="1260" fromJunction="J0" toJunction="J4" end="1320" vehsPerHour="20.117931974272846"/>
  <flow id="JF33262" begin="1260" fromJunction="J2" toJunction="J0" end="1320" vehsPerHour="25.896512855869638"/>
  <flow id="JF33263" begin="1260" fromJunction="J4" toJunction="J0" end="1320" vehsPerHour="29.16949710711254"/>
  <flow id="JF33264" begin="1260" fromJunction="J4" toJunction="J3" end="1320" vehsPerHour="37.06967736841142"/>
  <flow id="JF33265" begin="1320" fromJunction="J0" toJunction="J2" end="1380" vehsPerHour="72.58422044372283"/>
  <flow id="JF33266" begin="1320" fromJunction="J0" toJunction="J4" end="1380" vehsPerHour="92.44069753334419"/>
  <flow id="JF33267" begin="1320" fromJunction="J2" toJunction="J3" end="1380" vehsPerHour="92.33482109982225"/>
  <flow id="JF33268" begin="1320" fromJunction="J2" toJunction="J4" end="1380" vehsPerHour="21.924548233327474"/>
  <flow id="JF33269" begin="1320" fromJunction="J3" toJunction="J0" end="1380" vehsPerHour="77.89995963143154"/>
  <flow id="JF33270" begin="1320" fromJunction="J3" toJunction="J2" end="1380" vehsPerHour="47.70285067040858"/>
  <flow id="JF33271" begin="1320" fromJunction="J3" toJunction="J4" end="1380" vehsPerHour="12.291363478819534"/>
  <flow id="JF33272" begin="1320" fromJunction="J4" toJunction="J3" end="1380" vehsPerHour="11.89747028507335"/>
  <flow id="JF33273" begin="1380" fromJunction="J0" toJunction="J2" end="1440" vehsPerHour="3.073609809031198"/>
  <flow id="JF33274" begin="1380" fromJunction="J0" toJunction="J4" end="1440" vehsPerHour="131.61475633824705"/>
  <flow id="JF33275" begin="1380" fromJunction="J2" toJunction="J0" end="1440" vehsPerHour="122.75566872484413"/>
  <flow id="JF33276" begin="1380" fromJunction="J2" toJunction="J3" end="1440" vehsPerHour="48.8916619623716"/>
  <flow id="JF33277" begin="1380" fromJunction="J4" toJunction="J0" end="1440" vehsPerHour="123.04279795514103"/>
  <flow id="JF33278" begin="1380" fromJunction="J4" toJunction="J3" end="1440" vehsPerHour="133.32572019958008"/>
  <flow id="JF33279" begin="1440" fromJunction="J0" toJunction="J2" end="1500" vehsPerHour="10.62795447801418"/>
  <flow id="JF33280" begin="1440" fromJunction="J0" toJunction="J4" end="1500" vehsPerHour="135.8852060155639"/>
  <flow id="JF33281" begin="1440" fromJunction="J2" toJunction="J0" end="1500" vehsPerHour="104.09326335695481"/>
  <flow id="JF33282" begin="1440" fromJunction="J2" toJunction="J3" end="1500" vehsPerHour="4.174821567590838"/>
  <flow id="JF33283" begin="1440" fromJunction="J2" toJunction="J4" end="1500" vehsPerHour="70.36534192198008"/>
  <flow id="JF33284" begin="1440" fromJunction="J3" toJunction="J0" end="1500" vehsPerHour="94.89216740804368"/>
  <flow id="JF33285" begin="1440" fromJunction="J3" toJunction="J2" end="1500" vehsPerHour="39.00255976467071"/>
  <flow id="JF33286" begin="1440" fromJunction="J4" toJunction="J0" end="1500" vehsPerHour="12.034034695505945"/>
  <flow id="JF33287" begin="1440" fromJunction="J4" toJunction="J2" end="1500" vehsPerHour="65.5545595557367"/>
  <flow id="JF33288" begin="1500" fromJunction="J0" toJunction="J2" end="1560" vehsPerHour="130.77696731108063"/>
  <flow id="JF33289" begin="1500" fromJunction="J2" toJunction="J3" end="1560" vehsPerHour="84.99556975825922"/>
  <flow id="JF33290" begin="1500" fromJunction="J2" toJunction="J4" end="1560" vehsPerHour="68.26063831733525"/>
  <flow id="JF33291" begin="1500" fromJunction="J3" toJunction="J0" end="1560" vehsPerHour="107.36158376201436"/>
  <flow id="JF33292" begin="1500" fromJunction="J3" toJunction="J2" end="1560" vehsPerHour="114.59691071613422"/>
  <flow id="JF33293" begin="1500" fromJunction="J4" toJunction="J2" end="1560" vehsPerHour="8.593457455395786"/>
  <flow id="JF33294" begin="1500" fromJunction="J4" toJunction="J3" end="1560" vehsPerHour="11.344720898553337"/>
  <flow id="JF33295" begin="1560" fromJunction="J0" toJunction="J2" end="1620" vehsPerHour="5.136410806867619"/>
  <flow id="JF33296" begin="1560" fromJunction="J0" toJunction="J3" end="1620" vehsPerHour="102.68451761564653"/>
  <flow id="JF33297" begin="1560" fromJunction="J0" toJunction="J4" end="1620" vehsPerHour="130.14607128048323"/>
  <flow id="JF33298" begin="1560" fromJunction="J2" toJunction="J3" end="1620" vehsPerHour="24.683009791161545"/>
  <flow id="JF33299" begin="1620" fromJunction="J0" toJunction="J3" end="1680" vehsPerHour="127.79668930726791"/>
  <flow id="JF33300" begin="1620" fromJunction="J0" toJunction="J4" end="1680" vehsPerHour="67.9346660385846"/>
  <flow id="JF33301" begin="1620" fromJunction="J2" toJunction="J3" end="1680" vehsPerHour="88.15836939202916"/>
  <flow id="JF33302" begin="1620" fromJunction="J2" toJunction="J4" end="1680" vehsPerHour="68.68409353199691"/>
  <flow id="JF33303" begin="1620" fromJunction="J3" toJunction="J2" end="1680" vehsPerHour="41.69456608837937"/>
  <flow id="JF33304" begin="1620" fromJunction="J3" toJunction="J4" end="1680" vehsPerHour="70.75450192464255"/>
  <flow id="JF33305" begin="1620" fromJunction="J4" toJunction="J0" end="1680" vehsPerHour="38.849020418299204"/>
  <flow id="JF33306" begin="1620" fromJunction="J4" toJunction="J3" end="1680" vehsPerHour="124.19260888310127"/>
  <flow id="JF33307" begin="1680" fromJunction="J0" toJunction="J2" end="1740" vehsPerHour="123.96988026304209"/>
  <flow id="JF33308" begin="1680" fromJunction="J0" toJunction="J3" end="1740" vehsPerHour="33.34557962921255"/>
  <flow id="JF33309" begin="1680" fromJunction="J0" toJunction="J4" end="1740" vehsPerHour="7.492031290699777"/>
  <flow id="JF33310" begin="1680" fromJunction="J2" toJunction="J0" end="1740" vehsPerHour="85.48250004044864"/>
  <flow id="JF33311" begin="1680" fromJunction="J2" toJunction="J3" end="1740" vehsPerHour="28.991589946114328"/>
  <flow id="JF33312" begin="1680" fromJunction="J3" toJunction="J2" end="1740" vehsPerHour="33.70207046655138"/>
  <flow id="JF33313" begin="1680" fromJunction="J3" toJunction="J4" end="1740" vehsPerHour="75.90727744938803"/>
  <flow id="JF33314" begin="1680" fromJunction="J4" toJunction="J2" end="1740" vehsPerHour="60.49683016582316"/>
  <flow id="JF33315" begin="1680" fromJunction="J4" toJunction="J3" end="1740" vehsPerHour="65.86074989105975"/>
  <flow id="JF33316" begin="1740" fromJunction="J0" toJunction="J2" end="1800" vehsPerHour="42.42742717987005"/>
  <flow id="JF33317" begin="1740" fromJunction="J0" toJunction="J3" end="1800" vehsPerHour="95.54251308870093"/>
  <flow id="JF33318" begin="1740" fromJunction="J0" toJunction="J4" end="1800" vehsPerHour="125.44168502076074"/>
  <flow id="JF33319" begin="1740" fromJunction="J2" toJunction="J0" end="1800" vehsPerHour="42.723521505730034"/>
  <flow id="JF33320" begin="1740" fromJunction="J2" toJunction="J4" end="1800" vehsPerHour="29.208051284939643"/>
  <flow id="JF33321" begin="1740" fromJunction="J3" toJunction="J0" end="1800" vehsPerHour="5.586832322817773"/>
  <flow id="JF33322" begin="1740" fromJunction="J3" toJunction="J4" end="1800" vehsPerHour="104.63565719437423"/>
  <flow id="JF33323" begin="1740" fromJunction="J4" toJunction="J0" end="1800" vehsPerHour="122.88570209544102"/>
  <flow id="JF33324" begin="1740" fromJunction="J4" toJunction="J2" end="1800" vehsPerHour="70.4209138144686"/>
  <flow id="JF33325" begin="1800" fromJunction="J0" toJunction="J2" end="1860" vehsPerHour="92.53590657568897"/>
  <flow id="JF33326" begin="1800" fromJunction="J0" toJunction="J3" end="1860" vehsPerHour="8.429983145381359"/>
  <flow id="JF33327" begin="1800" fromJunction="J0" toJunction="J4" end="1860" vehsPerHour="116.26811137864551"/>
  <flow id="JF33328" begin="1800" fromJunction="J2" toJunction="J0" end="1860" vehsPerHour="19.016455146887157"/>
  <flow id="JF33329" begin="1800" fromJunction="J2" toJunction="J4" end="1860" vehsPerHour="125.06753895151338"/>
  <flow id="JF33330" begin="1800" fromJunction="J3" toJunction="J2" end="1860" vehsPerHour="56.20800782373398"/>
  <flow id="JF33331" begin="1800" fromJunction="J3" toJunction="J4" end="1860" vehsPerHour="72.18379527555713"/>
  <flow id="JF33332" begin="1800" fromJunction="J4" toJunction="J2" end="1860" vehsPerHour="17.038047871156135"/>
  <flow id="JF33333" begin="1860" fromJunction="J0" toJunction="J2" end="1920" vehsPerHour="60.05837783027851"/>
  <flow id="JF33334" begin="1860" fromJunction="J0" toJunction="J3" end="1920" vehsPerHour="65.07630303496562"/>
  <flow id="JF33335" begin="1860" fromJunction="J2" toJunction="J0" end="1920" vehsPerHour="43.001400521222834"/>
  <flow id="JF33336" begin="1860" fromJunction="J2" toJunction="J3" end="1920" vehsPerHour="47.36155395693611"/>
  <flow id="JF33337" begin="1860" fromJunction="J2" toJunction="J4" end="1920" vehsPerHour="49.79928689290511"/>
  <flow id="JF33338" begin="1860" fromJunction="J3" toJunction="J2" end="1920" vehsPerHour="73.34809333395246"/>
  <flow id="JF33339" begin="1860" fromJunction="J3" toJunction="J4" end="1920" vehsPerHour="29.954947766306546"/>
  <flow id="JF33340" begin="1860" fromJunction="J4" toJunction="J0" end="1920" vehsPerHour="14.24289198127301"/>
  <flow id="JF33341" begin="1860" fromJunction="J4" toJunction="J2" end="1920" vehsPerHour="29.28857503414413"/>
  <flow id="JF33342" begin="1860" fromJunction="J4" toJunction="J3" end="1920" vehsPerHour="69.86548731131401"/>
  <flow id="JF33343" begin="1920" fromJunction="J0" toJunction="J2" end="1980" vehsPerHour="56.1810506625842"/>