<?xml version="1.0" encoding="UTF-8"?>
<routes xmlns:xsi="http://www.w3.org/2001/XMLSchema-instance" xsi:noNamespaceSchemaLocation="http://sumo.dlr.de/xsd/routes_file.xsd">
  <flow id="JF33778" begin="0" fromJunction="J0" toJunction="J2" end="60" vehsPerHour="126.74351673879141"/>
  <flow id="JF33779" begin="0" fromJunction="J0" toJunction="J4" end="60" vehsPerHour="108.01467799963626"/>
  <flow id="JF33780" begin="0" fromJunction="J2" toJunction="J0" end="60" vehsPerHour="92.99771952364726"/>
  <flow id="JF33781" begin="0" fromJunction="J2" toJunction="J4" end="60" vehsPerHour="25.86077864282992"/>
  <flow id="JF33782" begin="0" fromJunction="J3" toJunction="J0" end="60" vehsPerHour="32.801904193293424"/>
  <flow id="JF33783" begin="0" fromJunction="J3" toJunction="J2" end="60" vehsPerHour="85.65842527009924"/>
  <flow id="JF33784" begin="0" fromJunction="J4" toJunction="J0" end="60" vehsPerHour="91.1056310762085"/>
  <flow id="JF33785" begin="0" fromJunction="J4" toJunction="J2" end="60" vehsPerHour="99.07837725691755"/>
  <flow id="JF33786" begin="0" fromJunction="J4" toJunction="J3" end="60" vehsPerHour="62.07238934949537"/>
  <flow id="JF33787" begin="60" fromJunction="J0" toJunction="J2" end="120" vehsPerHour="59.8030884216619"/>
  <flow id="JF33788" begin="60" fromJunction="J0" toJunction="J3" end="120" vehsPerHour="17.08045467964104"/>
  <flow id="JF33789" begin="60" fromJunction="J0" toJunction="J4" end="120" vehsPerHour="80.77533497791673"/>
  <flow id="JF33790" begin="60" fromJunction="J2" toJunction="J0" end="120" vehsPerHour="66.5647424107023"/>
  <flow id="JF33791" begin="60" fromJunction="J2" toJunction="J3" end="120" vehsPerHour="129.23606172591175"/>
  <flow id="JF33792" begin="60" fromJunction="J3" toJunction="J0" end="120" vehsPerHour="72.69646796605693"/>
  <flow id="JF33793" begin="60" fromJunction="J3" toJunction="J2" end="120" vehsPerHour="15.672318654162458"/>
  <flow id="JF33794" begin="60" fromJunction="J4" toJunction="J0" end="120" vehsPerHour="84.46383990842465"/>
  <flow id="JF33795" begin="60" fromJunction="J4" toJunction="J2" end="120" vehsPerHour="96.2776791791956"/>
  <flow id="JF33796" begin="120" fromJunction="J0" toJunction="J2" end="180" vehsPerHour="103.4966124341031"/>
  <flow id="JF33797" begin="120" fromJunction="J0" toJunction="J4" end="180" vehsPerHour="116.4518305493272"/>
  <flow id="JF33798" begin="120" fromJunction="J2" toJunction="J3" end="180" vehsPerHour="49.03717274753873"/>
  <flow id="JF33799" begin="120" fromJunction="J2" toJunction="J4" end="180" vehsPerHour="132.05479565657106"/>
  <flow id="JF33800" begin="120" fromJunction="J3" toJunction="J0" end="180" vehsPerHour="108.47450631377727"/>
  <flow id="JF33801" begin="120" fromJunction="J3" toJunction="J2" end="180" vehsPerHour="123.25982576409757"/>
  <flow id="JF33802" begin="120" fromJunction="J3" toJunction="J4" end="180" vehsPerHour="79.91242348888834"/>
  <flow id="JF33803" begin="120" fromJunction="J4" toJunction="J0" end="180" vehsPerHour="131.13279191141302"/>
  <flow id="JF33804" begin="180" fromJunction="J0" toJunction="J3" end="240" vehsPerHour="18.757457638123697"/>
  <flow id="JF33805" begin="180" fromJunction="J2" toJunction="J0" end="240" vehsPerHour="71.48483301539562"/>
  <flow id="JF33806" begin="180" fromJunction="J3" toJunction="J0" end="240" vehsPerHour="123.58629931915229"/>
  <flow id="JF33807" begin="180" fromJunction="J3" toJunction="J4" end="240" vehsPerHour="99.38393101077504"/>
  <flow id="JF33808" begin="180" fromJunction="J4" toJunction="J0" end="240" vehsPerHour="65.07493271127649"/>
  <flow id="JF33809" begin="180" fromJunction="J4" toJunction="J3" end="240" vehsPerHour="98.0485357576122"/>
  <flow id="JF33810" begin="240" fromJunction="J0" toJunction="J3" end="300" vehsPerHour="82.56421916347716"/>
  <flow id="JF33811" begin="240" fromJunction="J0" toJunction="J4" end="300" vehsPerHour="56.44474217639806"/>
  <flow id="JF33812" begin="240" fromJunction="J2" toJunction="J3" end="300" vehsPerHour="71.84641431113259"/>
  <flow id="JF33813" begin="240" fromJunction="J2" toJunction="J4" end="300" vehsPerHour="34.41756561061686"/>
  <flow id="JF33814" begin="240" fromJunction="J3" toJunction="J0" end="300" vehsPerHour="13.931078759840167"/>
  <flow id="JF33815" begin="240" fromJunction="J3" toJunction="J2" end="300" vehsPerHour="65.26954925753702"/>
  <flow id="JF33816" begin="240" fromJunction="J3" toJunction="J4" end="300" vehsPerHour="3.907127514963972"/>
  <flow id="JF33817" begin="240" fromJunction="J4" toJunction="J0" end="300" vehsPerHour="43.108698482392434"/>
  <flow id="JF33818" begin="240" fromJunction="J4" toJunction="J2" end="300" vehsPerHour="29.85131000775798"/>
  <flow id="JF33819" begin="240" fromJunction="J4" toJunction="J3" end="300" vehsPerHour="40.17641566371175"/>
  <flow id="JF33820" begin="300" fromJunction="J2" toJunction="J3" end="360" vehsPerHour="38.88796869624504"/>
  <flow id="JF33821" begin="300" fromJunction="J2" toJunction="J4" end="360" vehsPerHour="100.63279194123004"/>
  <flow id="JF33822" begin="300" fromJunction="J3" toJunction="J0" end="360" vehsPerHour="12.664384665294099"/>
  <flow id="JF33823" begin="300" fromJunction="J3" toJunction="J2" end="360" vehsPerHour="68.39896639187948"/>
  <flow id="JF33824" begin="300" fromJunction="J4" toJunction="J0" end="360" vehsPerHour="80.97226797618123"/>
  <flow id="JF33825" begin="300" fromJunction="J4" toJunction="J2" end="360" vehsPerHour="71.25482349747287"/>
  <flow id="JF33826" begin="360" fromJunction="J0" toJunction="J2" end="420" vehsPerHour="105.58662601385623"/>
  <flow id="JF33827" begin="360" fromJunction="J0" toJunction="J3" end="420" vehsPerHour="60.52153249599148"/>
  <flow id="JF33828" begin="360" fromJunction="J0" toJunction="J4" end="420" vehsPerHour="3.6228582427806426"/>
  <flow id="JF33829" begin="360" fromJunction="J2" toJunction="J3" end="420" vehsPerHour="84.09527622657818"/>
  <flow id="JF33830" begin="360" fromJunction="J2" toJunction="J4" end="420" vehsPerHour="38.13011782390311"/>
  <flow id="JF33831" begin="360" fromJunction="J3" toJunction="J0" end="420" vehsPerHour="93.6085910112178"/>
  <flow id="JF33832" begin="360" fromJunction="J3" toJunction="J2" end="420" vehsPerHour="120.4273083108513"/>
  <flow id="JF33833" begin="360" fromJunction="J3" toJunction="J4" end="420" vehsPerHour="29.072963572935766"/>
  <flow id="JF33834" begin="360" fromJunction="J4" toJunction="J0" end="420" vehsPerHour="14.131006292616362"/>
  <flow id="JF33835" begin="360" fromJunction="J4" toJunction="J2" end="420" vehsPerHour="112.5245021141938"/>
  <flow id="JF33836" begin="360" fromJunction="J4" toJunction="J3" end="420" vehsPerHour="42.28114481742621"/>
  <flow id="JF33837" begin="420" fromJunction="J0" toJunction="J2" end="480" vehsPerHour="119.099919044117"/>
  <flow id="JF33838" begin="420" fromJunction="J0" toJunction="J4" end="480" vehsPerHour="43.41523174692466"/>
  <flow id="JF33839" begin="420" fromJunction="J2" toJunction="J0" end="480" vehsPerHour="38.37820532697192"/>
  <flow id="JF33840" begin="420" fromJunction="J2" toJunction="J3" end="480" vehsPerHour="122.45908164532035"/>
  <flow id="JF33841" begin="420" fromJunction="J3" toJunction="J0" end="480" vehsPerHour="83.97088245639947"/>
  <flow id="JF33842" begin="420" fromJunction="J3" toJunction="J2" end="480" vehsPerHour="119.10990700974143"/>
  <flow id="JF33843" begin="420" fromJunction="J3" toJunction="J4" end="480" vehsPerHour="75.96976478263952"/>
  <flow id="JF33844" begin="420" fromJunction="J4" toJunction="J2" end="480" vehsPerHour="85.41274898949712"/>
  <flow id="JF33845" begin="480" fromJunction="J0" toJunction="J4" end="540" vehsPerHour="51.87409948797193"/>
  <flow id="JF33846" begin="480" fromJunction="J2" toJunction="J0" end="540" vehsPerHour="117.12720709983678"/>
  <flow id="JF33847" begin="480" fromJunction="J2" toJunction="J3" end="540" vehsPerHour="124.15079321668131"/>
  <flow id="JF33848" begin="480" fromJunction="J2" toJunction="J4" end="540" vehsPerHour="1.4246314044823396"/>
  <flow id="JF33849" begin="480" fromJunction="J3" toJunction="J0" end="540" vehsPerHour="24.876641249608724"/>
  <flow id="JF33850" begin="480" fromJunction="J3" toJunction="J2" end="540" vehsPerHour="92.94696337136111"/>
  <flow id="JF33851" begin="480" fromJunction="J3" toJunction="J4" end="540" vehsPerHour="131.99961237765802"/>
  <flow id="JF33852" begin="480" fromJunction="J4" toJunction="J2" end="540" vehsPerHour="16.564550343941878"/>
  <flow id="JF33853" begin="540" fromJunction="J0" toJunction="J2" end="600" vehsPerHour="58.59380689125427"/>
  <flow id="JF33854" begin="540" fromJunction="J0" toJunction="J4" end="600" vehsPerHour="42.15749190559958"/>
  <flow id="JF33855" begin="540" fromJunction="J2" toJunction="J4" end="600" vehsPerHour="1.461858268117022"/>
  <flow id="JF33856" begin="540" fromJunction="J3" toJunction="J0" end="600" vehsPerHour="128.4053099113895"/>
  <flow id="JF33857" begin="540" fromJunction="J3" toJunction="J2" end="600" vehsPerHour="70.24802317775838"/>
  <flow id="JF33858" begin="540" fromJunction="J3" toJunction="J4" end="600" vehsPerHour="85.10664195730583"/>
  <flow id="JF33859" begin="540" fromJunction="J4" toJunction="J2" end="600" vehsPerHour="27.129176367034464"/>
  <flow id="JF33860" begin="600" fromJunction="J0" toJunction="J2" end="660" vehsPerHour="121.31917402080771"/>
  <flow id="JF33861" begin="600" fromJunction="J0" toJunction="J3" end="660" vehsPerHour="44.36157970345022"/>
  <flow id="JF33862" begin="600" fromJunction="J0" toJunction="J4" end="660" vehsPerHour="107.51082799986784"/>
  <flow id="JF33863" begin="600" fromJunction="J2" toJunction="J0" end="660" vehsPerHour="20.031928197279832"/>
  <flow id="JF33864" begin="600" fromJunction="J2" toJunction="J4" end="660" vehsPerHour="16.585545280036172"/>
  <flow id="JF33865" begin="600" fromJunction="J3" toJunction="J0" end="660" vehsPerHour="17.578814524388612"/>
  <flow id="JF33866" begin="600" fromJunction="J3" toJunction="J2" end="660" vehsPerHour="9.49653610991917"/>
  <flow id="JF33867" begin="600" fromJunction="J3" toJunction="J4" end="660" vehsPerHour="9.364709162922916"/>
  <flow id="JF33868" begin="600" fromJunction="J4" toJunction="J0" end="660" vehsPerHour="55.51118890534027"/>
  <flow id="JF33869" begin="600" fromJunction="J4" toJunction="J2" end="660" vehsPerHour="41.198142548163304"/>
  <flow id="JF33870" begin="600" fromJunction="J4" toJunction="J3" end="660" vehsPerHour="60.90786391871698"/>
  <flow id="JF33871" begin="660" fromJunction="J0" toJunction="J2" end="720" vehsPerHour="14.249482820682053"/>
  <flow id="JF33872" begin="660" fromJunction="J0" toJunction="J4" end="720" vehsPerHour="129.11700966108995"/>
  <flow id="JF33873" begin="660" fromJunction="J2" toJunction="J0" end="720" vehsPerHour="75.01928332364034"/>
  <flow id="JF33874" begin="660" fromJunction="J2" toJunction="J3" end="720" vehsPerHour="117.21493276792057"/>
  <flow id="JF33875" begin="660" fromJunction="J2" toJunction="J4" end="720" vehsPerHour="5.328325087815857"/>
  <flow id="JF33876" begin="660" fromJunction="J4" toJunction="J0" end="720" vehsPerHour="54.99190110757833"/>
  <flow id="JF33877" begin="660" fromJunction="J4" toJunction="J2" end="720" vehsPerHour="11.911042479119507"/>
  <flow id="JF33878" begin="720" fromJunction="J0" toJunction="J2" end="780" vehsPerHour="62.95629116305549"/>
  <flow id="JF33879" begin="720" fromJunction="J0" toJunction="J3" end="780" vehsPerHour="57.51577803943874"/>
  <flow id="JF33880" begin="720" fromJunction="J0" toJunction="J4" end="780" vehsPerHour="79.6730276464397"/>
  <flow id="JF33881" begin="720" fromJunction="J3" toJunction="J0" end="780" vehsPerHour="118.87189760212729"/>
  <flow id="JF33882" begin="720" fromJunction="J3" toJunction="J2" end="780" vehsPerHour="106.53120591176021"/>
  <flow id="JF33883" begin="720" fromJunction="J3" toJunction="J4" end="780" vehsPerHour="21.736804852317213"/>
  <flow id="JF33884" begin="720" fromJunction="J4" toJunction="J2" end="780" vehsPerHour="93.63626120195885"/>
  <flow id="JF33885" begin="780" fromJunction="J0" toJunction="J2" end="840" vehsPerHour="16.53384314877306"/>
  <flow id="JF33886" begin="780" fromJunction="J0" toJunction="J4" end="840" vehsPerHour="85.16387492221604"/>
  <flow id="JF33887" begin="780" fromJunction="J2" toJunction="J0" end="840" vehsPerHour="128.47258403756302"/>
  <flow id="JF33888" begin="780" fromJunction="J2" toJunction="J3" end="840" vehsPerHour="121.58263219269209"/>
  <flow id="JF33889" begin="780" fromJunction="J2" toJunction="J4" end="840" vehsPerHour="43.32926768853661"/>
  <flow id="JF33890" begin="780" fromJunction="J3" toJunction="J0" end="840" vehsPerHour="48.290225270009394"/>
  <flow id="JF33891" begin="780" fromJunction="J4" toJunction="J0" end="840" vehsPerHour="73.25589617137135"/>
  <flow id="JF33892" begin="840" fromJunction="J0" toJunction="J2" end="900" vehsPerHour="49.4362937487347"/>
  <flow id="JF33893" begin="840" fromJunction="J0" toJunction="J3" end="900" vehsPerHour="8.0199062604351"/>
  <flow id="JF33894" begin="840" fromJunction="J0" toJunction="J4" end="900" vehsPerHour="7.2817447313362695"/>
  <flow id="JF33895" begin="840" fromJunction="J2" toJunction="J3" end="900" vehsPerHour="74.31767727367159"/>
  <flow id="JF33896" begin="840" fromJunction="J2" toJunction="J4" end="900" vehsPerHour="33.5053187145401"/>
  <flow id="JF33897" begin="840" fromJunction="J3" toJunction="J0" end="900" vehsPerHour="40.86027655824981"/>
  <flow id="JF33898" begin="840" fromJunction="J3" toJunction="J4" end="900" vehsPerHour="81.82549831025281"/>
  <flow id="JF33899" begin="840" fromJunction="J4" toJunction="J0" end="900" vehsPerHour="94.18713892990172"/>
  <flow id="JF33900" begin="840" fromJunction="J4" toJunction="J2" end="900" vehsPerHour="104.95910459466901"/>
  <flow id="JF33901" begin="840" fromJunction="J4" toJunction="J3" end="900" vehsPerHour="51.45057191879399"/>
  <flow id="JF33902" begin="900" fromJunction="J0" toJunction="J2" end="960" vehsPerHour="116.40946627000993"/>
  <flow id="JF33903" begin="900" fromJunction="J0" toJunction="J3" end="960" vehsPerHour="115.55241552311445"/>
  <flow id="JF33904" begin="900" fromJunction="J0" toJunction="J4" end="960" vehsPerHour="135.69395278190967"/>
  <flow id="JF33905" begin="900" fromJunction="J2" toJunction="J0" end="960" vehsPerHour="46.07317431866537"/>
  <flow id="JF33906" begin="900" fromJunction="J2" toJunction="J3" end="960" vehsPerHour="70.30343312812569"/>
  <flow id="JF33907" begin="900" fromJunction="J2" toJunction="J4" end="960" vehsPerHour="114.86828299205726"/>
  <flow id="JF33908" begin="900" fromJunction="J3" toJunction="J0" end="960" vehsPerHour="23.06283357393106"/>
  <flow id="JF33909" begin="900" fromJunction="J3" toJunction="J2" end="960" vehsPerHour="24.170735916617307"/>
  <flow id="JF33910" begin="900" fromJunction="J4" toJunction="J0" end="960" vehsPerHour="96.71403201460672"/>
  <flow id="JF33911" begin="900" fromJunction="J4" toJunction="J2" end="960" vehsPerHour="97.74768813032817"/>
  <flow id="JF33912" begin="960" fromJunction="J0" toJunction="J2" end="1020" vehsPerHour="5.241014146739806"/>
  <flow id="JF33913" begin="960" fromJunction="J0" toJunction="J3" end="1020" vehsPerHour="116.62699680108732"/>
  <flow id="JF33914" begin="960" fromJunction="J0" toJunction="J4" end="1020" vehsPerHour="34.04330592178109"/>
  <flow id="JF33915" begin="960" fromJunction="J2" toJunction="J4" end="1020" vehsPerHour="17.819226457339152"/>
  <flow id="JF33916" begin="960" fromJunction="J3" toJunction="J0" end="1020" vehsPerHour="118.88596731308361"/>
  <flow id="JF33917" begin="960" fromJunction="J3" toJunction="J2" end="1020" vehsPerHour="125.11978144511309"/>
  <flow id="JF33918" begin="960" fromJunction="J3" toJunction="J4" end="1020" vehsPerHour="19.124688900311767"/>
  <flow id="JF33919" begin="1020" fromJunction="J0" toJunction="J3" end="1080" vehsPerHour="54.64073849061026"/>
  <flow id="JF33920" begin="1020" fromJunction="J0" toJunction="J4" end="1080" vehsPerHour="6.824823148738878"/>
  <flow id="JF33921" begin="1020" fromJunction="J2" toJunction="J0" end="1080" vehsPerHour="50.247359112823055"/>
  <flow id="JF33922" begin="1020" fromJunction="J2" toJunction="J4" end="1080" vehsPerHour="88.48102816781311"/>
  <flow id="JF33923" begin="1020" fromJunction="J3" toJunction="J2" end="1080" vehsPerHour="65.65110402047443"/>
  <flow id="JF33924" begin="1020" fromJunction="J3" toJunction="J4" end="1080" vehsPerHour="118.20450934789177"/>
  <flow id="JF33925" begin="1020" fromJunction="J4" toJunction="J0" end="1080" vehsPerHour="32.689899372857205"/>
  <flow id="JF33926" begin="1020" fromJunction="J4" toJunction="J2" end="1080" vehsPerHour="64.42711924768585"/>
  <flow id="JF33927" begin="1020" fromJunction="J4" toJunction="J3" end="1080" vehsPerHour="126.0187619577161"/>
  <flow id="JF33928" begin="1080" fromJunction="J0" toJunction="J2" end="1140" vehsPerHour="23.128471095891264"/>
  <flow id="JF33929" begin="1080" fromJunction="J0" toJunction="J3" end="1140" vehsPerHour="16.777272631588815"/>
  <flow id="JF33930" begin="1080" fromJunction="J0" toJunction="J4" end="1140" vehsPerHour="130.43094094574107"/>
  <flow id="JF33931" begin="1080" fromJunction="J2" toJunction="J0" end="1140" vehsPerHour="101.35221874451284"/>
  <flow id="JF33932" begin="1080" fromJunction="J2" toJunction="J3" end="1140" vehsPerHour="29.391646722936574"/>
  <flow id="JF33933" begin="1080" fromJunction="J4" toJunction="J0" end="1140" vehsPerHour="97.92202617867746"/>
  <flow id="JF33934" begin="1080" fromJunction="J4" toJunction="J2" end="1140" vehsPerHour="13.322009070959107"/>
  <flow id="JF33935" begin="1080" fromJunction="J4" toJunction="J3" end="1140" vehsPerHour="62.02233906229415"/>
  <flow id="JF33936" begin="1140" fromJunction="J0" toJunction="J3" end="1200" vehsPerHour="71.33634244943867"/>
  <flow id="JF33937" begin="1140" fromJunction="J2" toJunction="J0" end="1200" vehsPerHour="73.03109343312678"/>
  <flow id="JF33938" begin="1140" fromJunction="J2" toJunction="J3" end="1200" vehsPerHour="24.341880768308577"/>
  <flow id="JF33939" begin="1140" fromJunction="J2" toJunction="J4" end="1200" vehsPerHour="26.1498575053526"/>
  <flow id="JF33940" begin="1140" fromJunction="J3" toJunction="J0" end="1200" vehsPerHour="0.6052228914714791"/>
  <flow id="JF33941" begin="1140" fromJunction="J3" toJunction="J4" end="1200" vehsPerHour="109.59514514652716"/>
  <flow id="JF33942" begin="1140" fromJunction="J4" toJunction="J0" end="1200" vehsPerHour="38.68834997629022"/>
  <flow id="JF33943" begin="1140" fromJunction="J4" toJunction="J2" end="1200" vehsPerHour="81.47021611989038"/>
  <flow id="JF33944" begin="1140" fromJunction="J4" toJunction="J3" end="1200" vehsPerHour="67.65264291382015"/>
  <flow id="JF33945" begin="1200" fromJunction="J0" toJunction="J2" end="1260" vehsPerHour="57.579987404629286"/>
  <flow id="JF33946" begin="1200" fromJunction="J0" toJunction="J3" end="1260" vehsPerHour="34.874544993071815"/>
  <flow id="JF33947" begin="1200" fromJunction="J2" toJunction="J0" end="1260" vehsPerHour="46.88764805496353"/>
  <flow id="JF33948" begin="1200" fromJunction="J2" toJunction="J3" end="1260" vehsPerHour="106.97645923277244"/>
  <flow id="JF33949" begin="1200" fromJunction="J3" toJunction="J2" end="1260" vehsPerHour="50.72161137720476"/>
  <flow id="JF33950" begin="1200" fromJunction="J3" toJunction="J4" end="1260" vehsPerHour="113.42235400812102"/>
  <flow id="JF33951" begin="1200" fromJunction="J4" toJunction="J0" end="1260" vehsPerHour="75.13075081075712"/>
  <flow id="JF33952" begin="1200" fromJunction="J4" toJunction="J2" end="1260" vehsPerHour="40.557809173473615"/>
  <flow id="JF33953" begin="1260" fromJunction="J0" toJunction="J2" end="1320" vehsPerHour="30.490324233829913"/>
  <flow id="JF33954" begin="1260" fromJunction="J0" toJunction="J3" end="1320" vehsPerHour="63.06012573341814"/>
  <flow id="JF33955" begin="1260" fromJunction="J0" toJunction="J4" end="1320" vehsPerHour="127.54373723056979"/>
  <flow id="JF33956" begin="1260" fromJunction="J2" toJunction="J0" end="1320" vehsPerHour="120.43069075707312"/>
  <flow id="JF33957" begin="1260" fromJunction="J2" toJunction="J3" end="1320" vehsPerHour="92.25177705777868"/>
  <flow id="JF33958" begin="1260" fromJunction="J2" toJunction="J4" end="1320" vehsPerHour="104.33170001349367"/>
  <flow id="JF33959" begin="1260" fromJunction="J3" toJunction="J0" end="1320" vehsPerHour="118.9081411184757"/>
  <flow id="JF33960" begin="1260" fromJunction="J3" toJunction="J2" end="1320" vehsPerHour="66.88276791877946"/>
  <flow id="JF33961" begin="1260" fromJunction="J3" toJunction="J4" end="1320" vehsPerHour="94.76983037881146"/>
  <flow id="JF33962" begin="1260" fromJunction="J4" toJunction="J2" end="1320" vehsPerHour="135.01110738822163"/>
  <flow id="JF33963" begin="1260" fromJunction="J4" toJunction="J3" end="1320" vehsPerHour="29.98389033332086"/>
  <flow id="JF33964" begin="1320" fromJunction="J0" toJunction="J2" end="1380" vehsPerHour="22.933490258080493"/>
  <flow id="JF33965" begin="1320" fromJunction="J0" toJunction="J4" end="1380" vehsPerHour="53.69373356090126"/>
  <flow id="JF33966" begin="1320" fromJunction="J2" toJunction="J0" end="1380" vehsPerHour="63.81328898185579"/>
  <flow id="JF33967" begin="1320" fromJunction="J3" toJunction="J0" end="1380" vehsPerHour="57.76210061248984"/>
  <flow id="JF33968" begin="1320" fromJunction="J3" toJunction="J2" end="1380" vehsPerHour="5.160301247298759"/>
  <flow id="JF33969" begin="1320" fromJunction="J3" toJunction="J4" end="1380" vehsPerHour="84.47078415402697"/>
  <flow id="JF33970" begin="1320" fromJunction="J4" toJunction="J0" end="1380" vehsPerHour="12.314751961071824"/>
  <flow id="JF33971" begin="1320" fromJunction="J4" toJunction="J3" end="1380" vehsPerHour="132.9605421052722"/>
  <flow id="JF33972" begin="1380" fromJunction="J0" toJunction="J3" end="1440" vehsPerHour="50.598501465240645"/>
  <flow id="JF33973" begin="1380" fromJunction="J0" toJunction="J4" end="1440" vehsPerHour="65.68043566399523"/>
  <flow id="JF33974" begin="1380" fromJunction="J2" toJunction="J0" end="1440" vehsPerHour="78.46163379251385"/>
  <flow id="JF33975" begin="1380" fromJunction="J2" toJunction="J3" end="1440" vehsPerHour="134.32118192186246"/>
  <flow id="JF33976" begin="1380" fromJunction="J2" toJunction="J4" end="1440" vehsPerHour="111.97744459383344"/>
  <flow id="JF33977" begin="1380" fromJunction="J3" toJunction="J0" end="1440" vehsPerHour="91.2189378280758"/>
  <flow id="JF33978" begin="1380" fromJunction="J3" toJunction="J4" end="1440" vehsPerHour="11.755140925899365"/>
  <flow id="JF33979" begin="1380" fromJunction="J4" toJunction="J0" end="1440" vehsPerHour="81.1577155980389"/>
  <flow id="JF33980" begin="1380" fromJunction="J4" toJunction="J2" end="1440" vehsPerHour="81.82895558676745"/>
  <flow id="JF33981" begin="1380" fromJunction="J4" toJunction="J3" end="1440" vehsPerHour="117.70690163948441"/>
  <flow id="JF33982" begin="1440" fromJunction="J0" toJunction="J2" end="1500" vehsPerHour="98.77980334937939"/>
  <flow id="JF33983" begin="1440" fromJunction="J0" toJunction="J3" end="1500" vehsPerHour="12.951483770785435"/>
  <flow id="JF33984" begin="1440" fromJunction="J0" toJunction="J4" end="1500" vehsPerHour="132.1912279491063"/>
  <flow id="JF33985" begin="1440" fromJunction="J2" toJunction="J3" end="1500" vehsPerHour="8.248090898519262"/>
  <flow id="JF33986" begin="1440" fromJunction="J2" toJunction="J4" end="1500" vehsPerHour="120.4690195655551"/>
  <flow id="JF33987" begin="1440" fromJunction="J3" toJunction="J0" end="1500" vehsPerHour="113.17045483627193"/>
  <flow id="JF33988" begin="1440" fromJunction="J3" toJunction="J2" end="1500" vehsPerHour="129.9117063898511"/>
  <flow id="JF33989" begin="1440" fromJunction="J3" toJunction="J4" end="1500" vehsPerHour="112.46250852802046"/>
  <flow id="JF33990" begin="1440" fromJunction="J4" toJunction="J0" end="1500" vehsPerHour="29.681055205197012"/>
  <flow id="JF33991" begin="1440" fromJunction="J4" toJunction="J2" end="1500" vehsPerHour="57.86522673646571"/>
  <flow id="JF33992" begin="1440" fromJunction="J4" toJunction="J3" end="1500" vehsPerHour="67.00539815491497"/>
  <flow id="JF33993" begin="1500" fromJunction="J0" toJunction="J4" end="1560" vehsPerHour="125.33812380444802"/>
  <flow id="JF33994" begin="1500" fromJunction="J2" toJunction="J4" end="1560" vehsPerHour="43.482714201221086"/>
  <flow id="JF33995" begin="1500" fromJunction="J3" toJunction="J0" end="1560" vehsPerHour="106.09393962337565"/>
  <flow id="JF33996" begin="1500" fromJunction="J3" toJunction="J4" end="1560" vehsPerHour="21.66402332437582"/>
  <flow id="JF33997" begin="1500" fromJunction="J4" toJunction="J0" end="1560" vehsPerHour="72.11553285831884"/>
  <flow id="JF33998" begin="1500" fromJunction="J4" toJunction="J2" end="1560" vehsPerHour="65.38771563005935"/>
  <flow id="JF33999" begin="1560" fromJunction="J0" toJunction="J2" end="1620" vehsPerHour="0.14939213027779197"/>
  <flow id="JF34000" begin="1560" fromJunction="J0" toJunction="J3" end="1620" vehsPerHour="121.87615518003747"/>
  <flow id="JF34001" begin="1560" fromJunction="J0" toJunction="J4" end="1620" vehsPerHour="69.00463055427355"/>
  <flow id="JF34002" begin="1560" fromJunction="J2" toJunction="J4" end="1620" vehsPerHour="125.94212200405522"/>
  <flow id="JF34003" begin="1560" fromJunction="J3" toJunction="J2" end="1620" vehsPerHour="79.53124207905496"/>
  <flow id="JF34004" begin="1560" fromJunction="J4" toJunction="J0" end="1620" vehsPerHour="112.744446546185"/>
  <flow id="JF34005" begin="1560" fromJunction="J4" toJunction="J3" end="1620" vehsPerHour="9.588642967477297"/>
  <flow id="JF34006" begin="1620" fromJunction="J0" toJunction="J2" end="1680" vehsPerHour="103.93148521041643"/>
  <flow id="JF34007" begin="1620" fromJunction="J0" toJunction="J4" end="1680" vehsPerHour="11.450670093132395"/>
  <flow id="JF34008" begin="1620" fromJunction="J2" toJunction="J0" end="1680" vehsPerHour="18.4126573787258"/>
  <flow id="JF34009" begin="1620" fromJunction="J2" toJunction="J3" end="1680" vehsPerHour="7.013635069073224"/>
  <flow id="JF34010" begin="1620" fromJunction="J2" toJunction="J4" end="1680" vehsPerHour="130.54479132255236"/>
  <flow id="JF34011" begin="1620" fromJunction="J3" toJunction="J0" end="1680" vehsPerHour="41.31481617070501"/>
  <flow id="JF34012" begin="1620" fromJunction="J3" toJunction="J2" end="1680" vehsPerHour="89.55943522390564"/>
  <flow id="JF34013" begin="1620" fromJunction="J3" toJunction="J4" end="1680" vehsPerHour="78.07016530256789"/>
  <flow id="JF34014" begin="1620" fromJunction="J4" toJunction="J0" end="1680" vehsPerHour="133.6242185549865"/>
  <flow id="JF34015" begin="1620" fromJunction="J4" toJunction="J2" end="1680" vehsPerHour="82.52899665284353"/>
  <flow id="JF34016" begin="1620" fromJunction="J4" toJunction="J3" end="1680" vehsPerHour="31.49219752274884"/>
  <flow id="JF34017" begin="1680" fromJunction="J0" toJunction="J2" end="1740" vehsPerHour="136.91197949390138"/>
  <flow id="JF34018" begin="1680" fromJunction="J0" toJunction="J3" end="1740" vehsPerHour="111.93346022649527"/>
  <flow id="JF34019" begin="1680" fromJunction="J0" toJunction="J4" end="1740" vehsPerHour="80.5454139683969"/>
  <flow id="JF34020" begin="1680" fromJunction="J2" toJunction="J0" end="1740" vehsPerHour="85.56738894628322"/>
  <flow id="JF34021" begin="1680" fromJunction="J2" toJunction="J3" end="1740" vehsPerHour="34.5344384712735"/>
  <flow id="JF34022" begin="1680" fromJunction="J2" toJunction="J4" end="1740" vehsPerHour="77.83786626805218"/>
  <flow id="JF34023" begin="1680" fromJunction="J3" toJunction="J0" end="1740" vehsPerHour="102.11565928459736"/>
  <flow id="JF34024" begin="1680" fromJunction="J3" toJunction="J4" end="1740" vehsPerHour="108.27456557853903"/>
  <flow id="JF34025" begin="1680" fromJunction="J4" toJunction="J0" end="1740" vehsPerHour="5.426385821643704"/>
  <flow id="JF34026" begin="1680" fromJunction="J4" toJunction="J3" end="1740" vehsPerHour="24.33740814705217"/>
  <flow id="JF34027" begin="1740" fromJunction="J0" toJunction="J4" end="1800" vehsPerHour="91.37776750355086"/>
  <flow id="JF34028" begin="1740" fromJunction="J2" toJunction="J0" end="1800" vehsPerHour="88.33267997678348"/>
  <flow id="JF34029" begin="1740" fromJunction="J2" toJunction="J3" end="1800" vehsPerHour="40.592131104312976"/>
  <flow id="JF34030" begin="1740" fromJunction="J2" toJunction="J4" end="1800" vehsPerHour="74.09570063318084"/>
  <flow id="JF34031" begin="1740" fromJunction="J3" toJunction="J0" end="1800" vehsPerHour="35.22401227361415"/>
  <flow id="JF34032" begin="1740" fromJunction="J3" toJunction="J2" end="1800" vehsPerHour="61.776256336791725"/>
  <flow id="JF34033" begin="1740" fromJunction="J3" toJunction="J4" end="1800" vehsPerHour="41.7696285918135"/>
  <flow id="JF34034" begin="1740" fromJunction="J4" toJunction="J2" end="1800" vehsPerHour="120.49598114119188"/>
  <flow id="JF34035" begin="1800" fromJunction="J0" toJunction="J3" end="1860" vehsPerHour="3.7349606160166395"/>
  <flow id="JF34036" begin="1800" fromJunction="J0" toJunction="J4" end="1860" vehsPerHour="80.77890007554579"/>
  <flow id="JF34037" begin="1800" fromJunction="J2" toJunction="J3" end="1860" vehsPerHour="38.146092057148856"/>
  <flow id="JF34038" begin="1800" fromJunction="J3" toJunction="J0" end="1860" vehsPerHour="77.64926868673822"/>
  <flow id="JF34039" begin="1800" fromJunction="J3" toJunction="J2" end="1860" vehsPerHour="23.036985648035444"/>
  <flow id="JF34040" begin="1800" fromJunction="J3" toJunction="J4" end="1860" vehsPerHour="31.03181407215193"/>
  <flow id="JF34041" begin="1800" fromJunction="J4" toJunction="J2" end="1860" vehsPerHour="120.44999142028855"/>
  <flow id="JF34042" begin="1800" fromJunction="J4" toJunction="J3" end="1860" vehsPerHour="74.69668279489647"/>