<?xml version="1.0" encoding="UTF-8"?>
<routes xmlns:xsi="http://www.w3.org/2001/XMLSchema-instance" xsi:noNamespaceSchemaLocation="http://sumo.dlr.de/xsd/routes_file.xsd">
  <flow id="JF32366" begin="0" fromJunction="J0" toJunction="J2" end="60" vehsPerHour="87.57399732822732"/>
  <flow id="JF32367" begin="0" fromJunction="J0" toJunction="J3" end="60" vehsPerHour="64.36157001819629"/>
  <flow id="JF32368" begin="0" fromJunction="J2" toJunction="J3" end="60" vehsPerHour="109.46461879646634"/>
  <flow id="JF32369" begin="0" fromJunction="J3" toJunction="J0" end="60" vehsPerHour="127.66288401395731"/>
  <flow id="JF32370" begin="0" fromJunction="J4" toJunction="J0" end="60" vehsPerHour="52.76415868648079"/>
  <flow id="JF32371" begin="0" fromJunction="J4" toJunction="J3" end="60" vehsPerHour="132.93562263817702"/>
  <flow id="JF32372" begin="60" fromJunction="J0" toJunction="J2" end="120" vehsPerHour="50.751035628029406"/>
  <flow id="JF32373" begin="60" fromJunction="J0" toJunction="J3" end="120" vehsPerHour="76.74413840762253"/>
  <flow id="JF32374" begin="60" fromJunction="J0" toJunction="J4" end="120" vehsPerHour="42.046887867663926"/>
  <flow id="JF32375" begin="60" fromJunction="J2" toJunction="J0" end="120" vehsPerHour="45.18890930228884"/>
  <flow id="JF32376" begin="60" fromJunction="J2" toJunction="J4" end="120" vehsPerHour="118.64611437953917"/>
  <flow id="JF32377" begin="60" fromJunction="J3" toJunction="J0" end="120" vehsPerHour="79.15665683666411"/>
  <flow id="JF32378" begin="60" fromJunction="J3" toJunction="J2" end="120" vehsPerHour="6.798163005067476"/>
  <flow id="JF32379" begin="60" fromJunction="J3" toJunction="J4" end="120" vehsPerHour="41.53847196023818"/>
  <flow id="JF32380" begin="60" fromJunction="J4" toJunction="J3" end="120" vehsPerHour="104.18725608863565"/>
  <flow id="JF32381" begin="120" fromJunction="J0" toJunction="J2" end="180" vehsPerHour="80.89105849488962"/>
  <flow id="JF32382" begin="120" fromJunction="J0" toJunction="J4" end="180" vehsPerHour="18.151388862748874"/>
  <flow id="JF32383" begin="120" fromJunction="J2" toJunction="J3" end="180" vehsPerHour="133.40680559328047"/>
  <flow id="JF32384" begin="120" fromJunction="J2" toJunction="J4" end="180" vehsPerHour="112.62194236265326"/>
  <flow id="JF32385" begin="120" fromJunction="J3" toJunction="J0" end="180" vehsPerHour="112.37615083944226"/>
  <flow id="JF32386" begin="120" fromJunction="J3" toJunction="J2" end="180" vehsPerHour="51.770284916142955"/>
  <flow id="JF32387" begin="120" fromJunction="J4" toJunction="J2" end="180" vehsPerHour="95.3372853815395"/>
  <flow id="JF32388" begin="180" fromJunction="J0" toJunction="J2" end="240" vehsPerHour="24.230717529357655"/>
  <flow id="JF32389" begin="180" fromJunction="J0" toJunction="J3" end="240" vehsPerHour="101.40026664802595"/>
  <flow id="JF32390" begin="180" fromJunction="J0" toJunction="J4" end="240" vehsPerHour="36.23411958302177"/>
  <flow id="JF32391" begin="180" fromJunction="J2" toJunction="J0" end="240" vehsPerHour="121.51468638123372"/>
  <flow id="JF32392" begin="180" fromJunction="J2" toJunction="J3" end="240" vehsPerHour="42.70678871162804"/>
  <flow id="JF32393" begin="180" fromJunction="J2" toJunction="J4" end="240" vehsPerHour="99.29863711597024"/>
  <flow id="JF32394" begin="180" fromJunction="J3" toJunction="J2" end="240" vehsPerHour="79.4250428385406"/>
  <flow id="JF32395" begin="180" fromJunction="J3" toJunction="J4" end="240" vehsPerHour="61.30607347028581"/>
  <flow id="JF32396" begin="180" fromJunction="J4" toJunction="J0" end="240" vehsPerHour="27.40781183762122"/>
  <flow id="JF32397" begin="180" fromJunction="J4" toJunction="J3" end="240" vehsPerHour="79.43461331187858"/>
  <flow id="JF32398" begin="240" fromJunction="J0" toJunction="J2" end="300" vehsPerHour="67.54485738229147"/>
  <flow id="JF32399" begin="240" fromJunction="J0" toJunction="J4" end="300" vehsPerHour="118.75865125923212"/>
  <flow id="JF32400" begin="240" fromJunction="J2" toJunction="J3" end="300" vehsPerHour="26.512584012207885"/>
  <flow id="JF32401" begin="240" fromJunction="J3" toJunction="J0" end="300" vehsPerHour="47.76522487283188"/>
  <flow id="JF32402" begin="240" fromJunction="J3" toJunction="J2" end="300" vehsPerHour="55.68644529620945"/>
  <flow id="JF32403" begin="240" fromJunction="J3" toJunction="J4" end="300" vehsPerHour="85.62036945475865"/>
  <flow id="JF32404" begin="240" fromJunction="J4" toJunction="J2" end="300" vehsPerHour="83.8102798945833"/>
  <flow id="JF32405" begin="300" fromJunction="J0" toJunction="J3" end="360" vehsPerHour="103.1376858854429"/>
  <flow id="JF32406" begin="300" fromJunction="J2" toJunction="J0" end="360" vehsPerHour="19.68616667129515"/>
  <flow id="JF32407" begin="300" fromJunction="J2" toJunction="J4" end="360" vehsPerHour="70.3672371808701"/>
  <flow id="JF32408" begin="300" fromJunction="J3" toJunction="J2" end="360" vehsPerHour="11.249705378811443"/>
  <flow id="JF32409" begin="300" fromJunction="J4" toJunction="J0" end="360" vehsPerHour="72.48416149804511"/>
  <flow id="JF32410" begin="300" fromJunction="J4" toJunction="J2" end="360" vehsPerHour="19.855113302349466"/>
  <flow id="JF32411" begin="360" fromJunction="J0" toJunction="J2" end="420" vehsPerHour="68.41614259630065"/>
  <flow id="JF32412" begin="360" fromJunction="J0" toJunction="J3" end="420" vehsPerHour="73.83257027721578"/>
  <flow id="JF32413" begin="360" fromJunction="J2" toJunction="J3" end="420" vehsPerHour="131.7704573118849"/>
  <flow id="JF32414" begin="360" fromJunction="J2" toJunction="J4" end="420" vehsPerHour="13.781129738551419"/>
  <flow id="JF32415" begin="360" fromJunction="J3" toJunction="J2" end="420" vehsPerHour="119.47200849025349"/>
  <flow id="JF32416" begin="360" fromJunction="J4" toJunction="J0" end="420" vehsPerHour="104.1615251327581"/>
  <flow id="JF32417" begin="360" fromJunction="J4" toJunction="J2" end="420" vehsPerHour="89.72339161970594"/>
  <flow id="JF32418" begin="360" fromJunction="J4" toJunction="J3" end="420" vehsPerHour="129.40188056296756"/>
  <flow id="JF32419" begin="420" fromJunction="J0" toJunction="J2" end="480" vehsPerHour="135.92784816291365"/>
  <flow id="JF32420" begin="420" fromJunction="J0" toJunction="J3" end="480" vehsPerHour="120.31523203462267"/>
  <flow id="JF32421" begin="420" fromJunction="J2" toJunction="J0" end="480" vehsPerHour="94.38470603018861"/>
  <flow id="JF32422" begin="420" fromJunction="J2" toJunction="J3" end="480" vehsPerHour="52.29048910980702"/>
  <flow id="JF32423" begin="420" fromJunction="J3" toJunction="J0" end="480" vehsPerHour="47.668751840914936"/>
  <flow id="JF32424" begin="420" fromJunction="J3" toJunction="J2" end="480" vehsPerHour="50.41448728794761"/>
  <flow id="JF32425" begin="420" fromJunction="J4" toJunction="J0" end="480" vehsPerHour="32.801263262416605"/>
  <flow id="JF32426" begin="420" fromJunction="J4" toJunction="J3" end="480" vehsPerHour="63.96519790055783"/>
  <flow id="JF32427" begin="480" fromJunction="J0" toJunction="J2" end="540" vehsPerHour="118.27939087804013"/>
  <flow id="JF32428" begin="480" fromJunction="J0" toJunction="J3" end="540" vehsPerHour="26.183411081323904"/>
  <flow id="JF32429" begin="480" fromJunction="J0" toJunction="J4" end="540" vehsPerHour="21.082669906408036"/>
  <flow id="JF32430" begin="480" fromJunction="J2" toJunction="J4" end="540" vehsPerHour="70.0635570919236"/>
  <flow id="JF32431" begin="480" fromJunction="J3" toJunction="J2" end="540" vehsPerHour="9.139222346279857"/>
  <flow id="JF32432" begin="480" fromJunction="J3" toJunction="J4" end="540" vehsPerHour="13.424455965455246"/>
  <flow id="JF32433" begin="480" fromJunction="J4" toJunction="J0" end="540" vehsPerHour="5.3294024110689255"/>
  <flow id="JF32434" begin="480" fromJunction="J4" toJunction="J2" end="540" vehsPerHour="43.47932032055523"/>
  <flow id="JF32435" begin="480" fromJunction="J4" toJunction="J3" end="540" vehsPerHour="103.65550319978202"/>
  <flow id="JF32436" begin="540" fromJunction="J0" toJunction="J2" end="600" vehsPerHour="108.3506427728674"/>
  <flow id="JF32437" begin="540" fromJunction="J0" toJunction="J3" end="600" vehsPerHour="66.01635731261163"/>
  <flow id="JF32438" begin="540" fromJunction="J0" toJunction="J4" end="600" vehsPerHour="100.84937735003388"/>
  <flow id="JF32439" begin="540" fromJunction="J2" toJunction="J0" end="600" vehsPerHour="14.293844004303129"/>
  <flow id="JF32440" begin="540" fromJunction="J2" toJunction="J4" end="600" vehsPerHour="135.70028579719556"/>
  <flow id="JF32441" begin="540" fromJunction="J3" toJunction="J2" end="600" vehsPerHour="30.81610318272851"/>
  <flow id="JF32442" begin="540" fromJunction="J3" toJunction="J4" end="600" vehsPerHour="51.52778807638455"/>
  <flow id="JF32443" begin="540" fromJunction="J4" toJunction="J0" end="600" vehsPerHour="60.455266029718466"/>
  <flow id="JF32444" begin="540" fromJunction="J4" toJunction="J2" end="600" vehsPerHour="58.409069764783254"/>
  <flow id="JF32445" begin="600" fromJunction="J0" toJunction="J2" end="660" vehsPerHour="114.33670858877139"/>
  <flow id="JF32446" begin="600" fromJunction="J0" toJunction="J3" end="660" vehsPerHour="91.68976300748089"/>
  <flow id="JF32447" begin="600" fromJunction="J0" toJunction="J4" end="660" vehsPerHour="86.24051127692556"/>
  <flow id="JF32448" begin="600" fromJunction="J2" toJunction="J0" end="660" vehsPerHour="99.8738715853349"/>
  <flow id="JF32449" begin="600" fromJunction="J2" toJunction="J3" end="660" vehsPerHour="114.57209647616214"/>
  <flow id="JF32450" begin="600" fromJunction="J2" toJunction="J4" end="660" vehsPerHour="105.50537228966573"/>
  <flow id="JF32451" begin="600" fromJunction="J3" toJunction="J0" end="660" vehsPerHour="108.73417176364482"/>
  <flow id="JF32452" begin="600" fromJunction="J3" toJunction="J2" end="660" vehsPerHour="93.13401015896004"/>
  <flow id="JF32453" begin="600" fromJunction="J3" toJunction="J4" end="660" vehsPerHour="48.53391482168285"/>
  <flow id="JF32454" begin="600" fromJunction="J4" toJunction="J0" end="660" vehsPerHour="66.80089811864855"/>
  <flow id="JF32455" begin="600" fromJunction="J4" toJunction="J2" end="660" vehsPerHour="58.128022580013244"/>
  <flow id="JF32456" begin="600" fromJunction="J4" toJunction="J3" end="660" vehsPerHour="20.27848294095052"/>
  <flow id="JF32457" begin="660" fromJunction="J0" toJunction="J2" end="720" vehsPerHour="82.54610088725966"/>
  <flow id="JF32458" begin="660" fromJunction="J0" toJunction="J4" end="720" vehsPerHour="122.19047833844675"/>
  <flow id="JF32459" begin="660" fromJunction="J2" toJunction="J0" end="720" vehsPerHour="53.92825442101313"/>
  <flow id="JF32460" begin="660" fromJunction="J3" toJunction="J0" end="720" vehsPerHour="23.712798206035057"/>
  <flow id="JF32461" begin="660" fromJunction="J3" toJunction="J2" end="720" vehsPerHour="100.18666093394515"/>
  <flow id="JF32462" begin="660" fromJunction="J3" toJunction="J4" end="720" vehsPerHour="74.55344207950053"/>
  <flow id="JF32463" begin="660" fromJunction="J4" toJunction="J2" end="720" vehsPerHour="50.114107375443375"/>
  <flow id="JF32464" begin="660" fromJunction="J4" toJunction="J3" end="720" vehsPerHour="130.63409794770604"/>
  <flow id="JF32465" begin="720" fromJunction="J0" toJunction="J3" end="780" vehsPerHour="85.19586072088033"/>
  <flow id="JF32466" begin="720" fromJunction="J2" toJunction="J0" end="780" vehsPerHour="78.78096311714064"/>
  <flow id="JF32467" begin="720" fromJunction="J2" toJunction="J4" end="780" vehsPerHour="13.865208868619476"/>
  <flow id="JF32468" begin="720" fromJunction="J3" toJunction="J0" end="780" vehsPerHour="123.61769671661374"/>
  <flow id="JF32469" begin="720" fromJunction="J3" toJunction="J2" end="780" vehsPerHour="34.61855926874511"/>
  <flow id="JF32470" begin="720" fromJunction="J3" toJunction="J4" end="780" vehsPerHour="19.709722792032874"/>
  <flow id="JF32471" begin="720" fromJunction="J4" toJunction="J0" end="780" vehsPerHour="108.48427662423633"/>
  <flow id="JF32472" begin="720" fromJunction="J4" toJunction="J2" end="780" vehsPerHour="83.33182100381589"/>
  <flow id="JF32473" begin="780" fromJunction="J0" toJunction="J2" end="840" vehsPerHour="58.999094099200846"/>
  <flow id="JF32474" begin="780" fromJunction="J0" toJunction="J4" end="840" vehsPerHour="127.50397540427002"/>
  <flow id="JF32475" begin="780" fromJunction="J2" toJunction="J0" end="840" vehsPerHour="89.3896995126548"/>
  <flow id="JF32476" begin="780" fromJunction="J2" toJunction="J4" end="840" vehsPerHour="88.99187743528314"/>
  <flow id="JF32477" begin="780" fromJunction="J3" toJunction="J2" end="840" vehsPerHour="60.051662569671606"/>
  <flow id="JF32478" begin="780" fromJunction="J3" toJunction="J4" end="840" vehsPerHour="2.8002328893448674"/>
  <flow id="JF32479" begin="780" fromJunction="J4" toJunction="J0" end="840" vehsPerHour="122.80080343554762"/>
  <flow id="JF32480" begin="780" fromJunction="J4" toJunction="J3" end="840" vehsPerHour="92.49485851711543"/>
  <flow id="JF32481" begin="840" fromJunction="J0" toJunction="J2" end="900" vehsPerHour="116.19024270347128"/>
  <flow id="JF32482" begin="840" fromJunction="J2" toJunction="J4" end="900" vehsPerHour="104.49627968177353"/>
  <flow id="JF32483" begin="840" fromJunction="J3" toJunction="J0" end="900" vehsPerHour="78.07510679043368"/>
  <flow id="JF32484" begin="840" fromJunction="J3" toJunction="J2" end="900" vehsPerHour="25.694885171671054"/>
  <flow id="JF32485" begin="840" fromJunction="J3" toJunction="J4" end="900" vehsPerHour="111.98803891919682"/>
  <flow id="JF32486" begin="840" fromJunction="J4" toJunction="J0" end="900" vehsPerHour="62.72242397045381"/>
  <flow id="JF32487" begin="840" fromJunction="J4" toJunction="J3" end="900" vehsPerHour="14.04883806346028"/>
  <flow id="JF32488" begin="900" fromJunction="J0" toJunction="J2" end="960" vehsPerHour="36.31895475438063"/>
  <flow id="JF32489" begin="900" fromJunction="J0" toJunction="J3" end="960" vehsPerHour="27.879608001601415"/>
  <flow id="JF32490" begin="900" fromJunction="J0" toJunction="J4" end="960" vehsPerHour="81.4597102261645"/>
  <flow id="JF32491" begin="900" fromJunction="J2" toJunction="J0" end="960" vehsPerHour="68.27740045176238"/>
  <flow id="JF32492" begin="900" fromJunction="J2" toJunction="J4" end="960" vehsPerHour="87.76155226765326"/>
  <flow id="JF32493" begin="900" fromJunction="J3" toJunction="J2" end="960" vehsPerHour="37.827979346537326"/>
  <flow id="JF32494" begin="900" fromJunction="J4" toJunction="J0" end="960" vehsPerHour="95.54757154532476"/>
  <flow id="JF32495" begin="900" fromJunction="J4" toJunction="J2" end="960" vehsPerHour="62.36018645038416"/>
  <flow id="JF32496" begin="900" fromJunction="J4" toJunction="J3" end="960" vehsPerHour="78.30798853573725"/>
  <flow id="JF32497" begin="960" fromJunction="J0" toJunction="J2" end="1020" vehsPerHour="103.9848858708873"/>
  <flow id="JF32498" begin="960" fromJunction="J2" toJunction="J0" end="1020" vehsPerHour="111.69734755577531"/>
  <flow id="JF32499" begin="960" fromJunction="J2" toJunction="J3" end="1020" vehsPerHour="54.62240890818733"/>
  <flow id="JF32500" begin="960" fromJunction="J2" toJunction="J4" end="1020" vehsPerHour="38.295903677876844"/>
  <flow id="JF32501" begin="960" fromJunction="J3" toJunction="J0" end="1020" vehsPerHour="11.299636761692197"/>
  <flow id="JF32502" begin="960" fromJunction="J3" toJunction="J2" end="1020" vehsPerHour="61.887108684081554"/>
  <flow id="JF32503" begin="960" fromJunction="J3" toJunction="J4" end="1020" vehsPerHour="3.139525163665159"/>
  <flow id="JF32504" begin="960" fromJunction="J4" toJunction="J0" end="1020" vehsPerHour="28.722319360973735"/>
  <flow id="JF32505" begin="960" fromJunction="J4" toJunction="J2" end="1020" vehsPerHour="68.07050406229875"/>
  <flow id="JF32506" begin="960" fromJunction="J4" toJunction="J3" end="1020" vehsPerHour="123.0723216001142"/>
  <flow id="JF32507" begin="1020" fromJunction="J0" toJunction="J2" end="1080" vehsPerHour="39.31708332823833"/>
  <flow id="JF32508" begin="1020" fromJunction="J0" toJunction="J3" end="1080" vehsPerHour="3.8052692677452256"/>
  <flow id="JF32509" begin="1020" fromJunction="J0" toJunction="J4" end="1080" vehsPerHour="110.5388644971147"/>
  <flow id="JF32510" begin="1020" fromJunction="J2" toJunction="J0" end="1080" vehsPerHour="33.82527337658408"/>
  <flow id="JF32511" begin="1020" fromJunction="J2" toJunction="J3" end="1080" vehsPerHour="55.79745443250997"/>
  <flow id="JF32512" begin="1020" fromJunction="J3" toJunction="J0" end="1080" vehsPerHour="8.473376054249083"/>
  <flow id="JF32513" begin="1020" fromJunction="J3" toJunction="J2" end="1080" vehsPerHour="32.05027940648673"/>
  <flow id="JF32514" begin="1020" fromJunction="J3" toJunction="J4" end="1080" vehsPerHour="82.59725445576305"/>
  <flow id="JF32515" begin="1020" fromJunction="J4" toJunction="J0" end="1080" vehsPerHour="39.790257240867895"/>
  <flow id="JF32516" begin="1020" fromJunction="J4" toJunction="J2" end="1080" vehsPerHour="62.630301840671045"/>
  <flow id="JF32517" begin="1020" fromJunction="J4" toJunction="J3" end="1080" vehsPerHour="119.7381180430869"/>
  <flow id="JF32518" begin="1080" fromJunction="J0" toJunction="J2" end="1140" vehsPerHour="93.14150867909284"/>
  <flow id="JF32519" begin="1080" fromJunction="J0" toJunction="J3" end="1140" vehsPerHour="135.76520368231692"/>
  <flow id="JF32520" begin="1080" fromJunction="J0" toJunction="J4" end="1140" vehsPerHour="56.051421727540614"/>
  <flow id="JF32521" begin="1080" fromJunction="J2" toJunction="J0" end="1140" vehsPerHour="56.29039987196883"/>
  <flow id="JF32522" begin="1080" fromJunction="J2" toJunction="J4" end="1140" vehsPerHour="31.64597774617263"/>
  <flow id="JF32523" begin="1080" fromJunction="J3" toJunction="J0" end="1140" vehsPerHour="63.963775252408595"/>
  <flow id="JF32524" begin="1080" fromJunction="J3" toJunction="J2" end="1140" vehsPerHour="53.44264364225853"/>
  <flow id="JF32525" begin="1080" fromJunction="J3" toJunction="J4" end="1140" vehsPerHour="83.78037992820717"/>
  <flow id="JF32526" begin="1080" fromJunction="J4" toJunction="J0" end="1140" vehsPerHour="57.87078725072957"/>
  <flow id="JF32527" begin="1080" fromJunction="J4" toJunction="J2" end="1140" vehsPerHour="101.07433244716455"/>
  <flow id="JF32528" begin="1080" fromJunction="J4" toJunction="J3" end="1140" vehsPerHour="72.50703538714404"/>
  <flow id="JF32529" begin="1140" fromJunction="J0" toJunction="J2" end="1200" vehsPerHour="2.852788704075976"/>
  <flow id="JF32530" begin="1140" fromJunction="J0" toJunction="J3" end="1200" vehsPerHour="123.56374866029843"/>
  <flow id="JF32531" begin="1140" fromJunction="J0" toJunction="J4" end="1200" vehsPerHour="5.975377386285474"/>
  <flow id="JF32532" begin="1140" fromJunction="J2" toJunction="J4" end="1200" vehsPerHour="135.15763449818715"/>
  <flow id="JF32533" begin="1140" fromJunction="J3" toJunction="J2" end="1200" vehsPerHour="30.29341119850379"/>
  <flow id="JF32534" begin="1140" fromJunction="J3" toJunction="J4" end="1200" vehsPerHour="109.829953425687"/>
  <flow id="JF32535" begin="1140" fromJunction="J4" toJunction="J0" end="1200" vehsPerHour="120.17410841792056"/>
  <flow id="JF32536" begin="1140" fromJunction="J4" toJunction="J2" end="1200" vehsPerHour="104.4036420094792"/>
  <flow id="JF32537" begin="1140" fromJunction="J4" toJunction="J3" end="1200" vehsPerHour="107.93130315756257"/>
  <flow id="JF32538" begin="1200" fromJunction="J0" toJunction="J2" end="1260" vehsPerHour="16.538760052581676"/>
  <flow id="JF32539" begin="1200" fromJunction="J2" toJunction="J0" end="1260" vehsPerHour="61.35837644026974"/>
  <flow id="JF32540" begin="1200" fromJunction="J2" toJunction="J3" end="1260" vehsPerHour="15.933990987881128"/>
  <flow id="JF32541" begin="1200" fromJunction="J2" toJunction="J4" end="1260" vehsPerHour="91.40375393910605"/>
  <flow id="JF32542" begin="1200" fromJunction="J3" toJunction="J0" end="1260" vehsPerHour="130.06626024446524"/>
  <flow id="JF32543" begin="1200" fromJunction="J3" toJunction="J2" end="1260" vehsPerHour="85.92551273426012"/>
  <flow id="JF32544" begin="1200" fromJunction="J3" toJunction="J4" end="1260" vehsPerHour="105.75830593809252"/>
  <flow id="JF32545" begin="1200" fromJunction="J4" toJunction="J0" end="1260" vehsPerHour="13.359043044851513"/>
  <flow id="JF32546" begin="1260" fromJunction="J2" toJunction="J0" end="1320" vehsPerHour="13.060869609049861"/>
  <flow id="JF32547" begin="1260" fromJunction="J2" toJunction="J3" end="1320" vehsPerHour="119.35591091583744"/>
  <flow id="JF32548" begin="1260" fromJunction="J3" toJunction="J0" end="1320" vehsPerHour="52.54927397572953"/>
  <flow id="JF32549" begin="1260" fromJunction="J3" toJunction="J2" end="1320" vehsPerHour="110.97377469836054"/>
  <flow id="JF32550" begin="1260" fromJunction="J3" toJunction="J4" end="1320" vehsPerHour="74.21450385899608"/>
  <flow id="JF32551" begin="1260" fromJunction="J4" toJunction="J0" end="1320" vehsPerHour="21.07667312949069"/>
  <flow id="JF32552" begin="1260" fromJunction="J4" toJunction="J2" end="1320" vehsPerHour="68.56733751264166"/>
  <flow id="JF32553" begin="1260" fromJunction="J4" toJunction="J3" end="1320" vehsPerHour="40.968906594977724"/>
  <flow id="JF32554" begin="1320" fromJunction="J0" toJunction="J3" end="1380" vehsPerHour="34.38668052681403"/>
  <flow id="JF32555" begin="1320" fromJunction="J0" toJunction="J4" end="1380" vehsPerHour="90.66944239903604"/>
  <flow id="JF32556" begin="1320" fromJunction="J2" toJunction="J0" end="1380" vehsPerHour="88.91465554218627"/>
  <flow id="JF32557" begin="1320" fromJunction="J2" toJunction="J3" end="1380" vehsPerHour="124.16443028000387"/>
  <flow id="JF32558" begin="1320" fromJunction="J2" toJunction="J4" end="1380" vehsPerHour="17.59996643829778"/>
  <flow id="JF32559" begin="1320" fromJunction="J3" toJunction="J0" end="1380" vehsPerHour="118.013443913883"/>
  <flow id="JF32560" begin="1320" fromJunction="J3" toJunction="J2" end="1380" vehsPerHour="88.8364847711917"/>
  <flow id="JF32561" begin="1320" fromJunction="J3" toJunction="J4" end="1380" vehsPerHour="125.79583881382378"/>
  <flow id="JF32562" begin="1380" fromJunction="J0" toJunction="J2" end="1440" vehsPerHour="70.99532312735006"/>
  <flow id="JF32563" begin="1380" fromJunction="J0" toJunction="J3" end="1440" vehsPerHour="65.99709910863197"/>
  <flow id="JF32564" begin="1380" fromJunction="J2" toJunction="J4" end="1440" vehsPerHour="40.47294960051207"/>
  <flow id="JF32565" begin="1380" fromJunction="J3" toJunction="J0" end="1440" vehsPerHour="14.381317089995663"/>
  <flow id="JF32566" begin="1380" fromJunction="J3" toJunction="J2" end="1440" vehsPerHour="120.52055170976848"/>
  <flow id="JF32567" begin="1380" fromJunction="J3" toJunction="J4" end="1440" vehsPerHour="8.424238045520388"/>
  <flow id="JF32568" begin="1380" fromJunction="J4" toJunction="J2" end="1440" vehsPerHour="52.534501734009"/>
  <flow id="JF32569" begin="1380" fromJunction="J4" toJunction="J3" end="1440" vehsPerHour="88.36989993612339"/>
  <flow id="JF32570" begin="1440" fromJunction="J0" toJunction="J2" end="1500" vehsPerHour="18.50431528183861"/>
  <flow id="JF32571" begin="1440" fromJunction="J0" toJunction="J4" end="1500" vehsPerHour="123.73669485034519"/>
  <flow id="JF32572" begin="1440" fromJunction="J2" toJunction="J0" end="1500" vehsPerHour="19.583117923511413"/>
  <flow id="JF32573" begin="1440" fromJunction="J2" toJunction="J3" end="1500" vehsPerHour="66.25199121807648"/>
  <flow id="JF32574" begin="1440" fromJunction="J2" toJunction="J4" end="1500" vehsPerHour="78.62851309418598"/>
  <flow id="JF32575" begin="1440" fromJunction="J3" toJunction="J0" end="1500" vehsPerHour="118.20516983039708"/>
  <flow id="JF32576" begin="1440" fromJunction="J3" toJunction="J2" end="1500" vehsPerHour="3.1464583754474797"/>
  <flow id="JF32577" begin="1500" fromJunction="J0" toJunction="J2" end="1560" vehsPerHour="12.916223746515193"/>
  <flow id="JF32578" begin="1500" fromJunction="J0" toJunction="J3" end="1560" vehsPerHour="33.776410254500824"/>
  <flow id="JF32579" begin="1500" fromJunction="J2" toJunction="J0" end="1560" vehsPerHour="89.03018674920713"/>
  <flow id="JF32580" begin="1500" fromJunction="J2" toJunction="J3" end="1560" vehsPerHour="28.934806783065522"/>
  <flow id="JF32581" begin="1500" fromJunction="J2" toJunction="J4" end="1560" vehsPerHour="44.859409849604724"/>
  <flow id="JF32582" begin="1500" fromJunction="J3" toJunction="J0" end="1560" vehsPerHour="122.33714106701827"/>
  <flow id="JF32583" begin="1500" fromJunction="J3" toJunction="J2" end="1560" vehsPerHour="37.91889736546375"/>
  <flow id="JF32584" begin="1500" fromJunction="J4" toJunction="J0" end="1560" vehsPerHour="28.196080721901577"/>
  <flow id="JF32585" begin="1500" fromJunction="J4" toJunction="J2" end="1560" vehsPerHour="68.12754550715833"/>
  <flow id="JF32586" begin="1500" fromJunction="J4" toJunction="J3" end="1560" vehsPerHour="30.66195812831485"/>
  <flow id="JF32587" begin="1560" fromJunction="J0" toJunction="J3" end="1620" vehsPerHour="24.294839196735953"/>
  <flow id="JF32588" begin="1560" fromJunction="J2" toJunction="J0" end="1620" vehsPerHour="31.326272500635568"/>
  <flow id="JF32589" begin="1560" fromJunction="J2" toJunction="J3" end="1620" vehsPerHour="97.30790929944978"/>
  <flow id="JF32590" begin="1560" fromJunction="J2" toJunction="J4" end="1620" vehsPerHour="49.560379670321474"/>
  <flow id="JF32591" begin="1560" fromJunction="J3" toJunction="J0" end="1620" vehsPerHour="32.31468927875772"/>
  <flow id="JF32592" begin="1560" fromJunction="J3" toJunction="J4" end="1620" vehsPerHour="13.155511612016172"/>
  <flow id="JF32593" begin="1560" fromJunction="J4" toJunction="J0" end="1620" vehsPerHour="77.88369426662224"/>
  <flow id="JF32594" begin="1560" fromJunction="J4" toJunction="J2" end="1620" vehsPerHour="16.796434268135677"/>
  <flow id="JF32595" begin="1560" fromJunction="J4" toJunction="J3" end="1620" vehsPerHour="16.055029935086285"/>
  <flow id="JF32596" begin="1620" fromJunction="J0" toJunction="J2" end="1680" vehsPerHour="55.739758033777164"/>
  <flow id="JF32597" begin="1620" fromJunction="J0" toJunction="J3" end="1680" vehsPerHour="18.726880626436724"/>
  <flow id="JF32598" begin="1620" fromJunction="J2" toJunction="J3" end="1680" vehsPerHour="126.26731850789106"/>
  <flow id="JF32599" begin="1620" fromJunction="J2" toJunction="J4" end="1680" vehsPerHour="127.83416055944296"/>
  <flow id="JF32600" begin="1620" fromJunction="J3" toJunction="J0" end="1680" vehsPerHour="112.68177626113444"/>
  <flow id="JF32601" begin="1620" fromJunction="J3" toJunction="J2" end="1680" vehsPerHour="31.626933832156308"/>
  <flow id="JF32602" begin="1620" fromJunction="J4" toJunction="J3" end="1680" vehsPerHour="131.0351236371478"/>
  <flow id="JF32603" begin="1680" fromJunction="J0" toJunction="J2" end="1740" vehsPerHour="46.413176044176446"/>
  <flow id="JF32604" begin="1680" fromJunction="J0" toJunction="J3" end="1740" vehsPerHour="100.82029122440709"/>
  <flow id="JF32605" begin="1680" fromJunction="J0" toJunction="J4" end="1740" vehsPerHour="54.77302276812364"/>
  <flow id="JF32606" begin="1680" fromJunction="J2" toJunction="J0" end="1740" vehsPerHour="53.12445426733112"/>
  <flow id="JF32607" begin="1680" fromJunction="J2" toJunction="J3" end="1740" vehsPerHour="134.75350283688027"/>
  <flow id="JF32608" begin="1680" fromJunction="J3" toJunction="J2" end="1740" vehsPerHour="17.729419526529558"/>
  <flow id="JF32609" begin="1680" fromJunction="J4" toJunction="J0" end="1740" vehsPerHour="37.744172983494934"/>
  <flow id="JF32610" begin="1680" fromJunction="J4" toJunction="J2" end="1740" vehsPerHour="137.3540599520927"/>
  <flow id="JF32611" begin="1680" fromJunction="J4" toJunction="J3" end="1740" vehsPerHour="114.05411185364845"/>
  <flow id="JF32612" begin="1740" fromJunction="J0" toJunction="J2" end="1800" vehsPerHour="95.10913664907928"/>
  <flow id="JF32613" begin="1740" fromJunction="J0" toJunction="J3" end="1800" vehsPerHour="19.569575781654166"/>
  <flow id="JF32614" begin="1740" fromJunction="J0" toJunction="J4" end="1800" vehsPerHour="53.69422582447033"/>
  <flow id="JF32615" begin="1740" fromJunction="J2" toJunction="J0" end="1800" vehsPerHour="134.18870890497138"/>
  <flow id="JF32616" begin="1740" fromJunction="J2" toJunction="J3" end="1800" vehsPerHour="71.56181606025757"/>
  <flow id="JF32617" begin="1740" fromJunction="J2" toJunction="J4" end="1800" vehsPerHour="23.285379411125305"/>
  <flow id="JF32618" begin="1740" fromJunction="J3" toJunction="J0" end="1800" vehsPerHour="74.15763980240308"/>
  <flow id="JF32619" begin="1740" fromJunction="J3" toJunction="J2" end="1800" vehsPerHour="64.09556988575932"/>
  <flow id="JF32620" begin="1740" fromJunction="J3" toJunction="J4" end="1800" vehsPerHour="54.22508550760772"/>
  <flow id="JF32621" begin="1740" fromJunction="J4" toJunction="J0" end="1800" vehsPerHour="9.274412339455433"/>
  <flow id="JF32622" begin="1740" fromJunction="J4" toJunction="J2" end="1800" vehsPerHour="58.476759960104886"/>
  <flow id="JF32623" begin="1800" fromJunction="J0" toJunction="J3" end="1860" vehsPerHour="24.397016497549927"/>
  <flow id="JF32624" begin="1800" fromJunction="J0" toJunction="J4" end="1860" vehsPerHour="127.88042785247033"/>
  <flow id="JF32625" begin="1800" fromJunction="J2" toJunction="J0" end="1860" vehsPerHour="14.611330914305137"/>
  <flow id="JF32626" begin="1800" fromJunction="J2" toJunction="J3" end="1860" vehsPerHour="45.90682434812045"/>
  <flow id="JF32627" begin="1800" fromJunction="J2" toJunction="J4" end="1860" vehsPerHour="97.582763947288"/>
  <flow id="JF32628" begin="1800" fromJunction="J3" toJunction="J0" end="1860" vehsPerHour="103.46164208202985"/>
  <flow id="JF32629" begin="1800" fromJunction="J3" toJunction="J2" end="1860" vehsPerHour="133.2464011220498"/>
  <flow id="JF32630" begin="1800" fromJunction="J4" toJunction="J0" end="1860" vehsPerHour="123.78219978119773"/>