<?xml version="1.0" encoding="UTF-8"?>
<routes xmlns:xsi="http://www.w3.org/2001/XMLSchema-instance" xsi:noNamespaceSchemaLocation="http://sumo.dlr.de/xsd/routes_file.xsd">
  <flow id="JF37341" begin="0" fromJunction="J0" toJunction="J3" end="60" vehsPerHour="29.370808906896233"/>
  <flow id="JF37342" begin="0" fromJunction="J2" toJunction="J3" end="60" vehsPerHour="116.7666578547437"/>
  <flow id="JF37343" begin="0" fromJunction="J2" toJunction="J4" end="60" vehsPerHour="56.742112841614684"/>
  <flow id="JF37344" begin="0" fromJunction="J3" toJunction="J0" end="60" vehsPerHour="123.77798544344522"/>
  <flow id="JF37345" begin="0" fromJunction="J3" toJunction="J2" end="60" vehsPerHour="64.94377058185228"/>
  <flow id="JF37346" begin="0" fromJunction="J4" toJunction="J0" end="60" vehsPerHour="75.29377671644603"/>
  <flow id="JF37347" begin="0" fromJunction="J4" toJunction="J2" end="60" vehsPerHour="117.51984262498144"/>
  <flow id="JF37348" begin="60" fromJunction="J0" toJunction="J2" end="120" vehsPerHour="24.142881989719623"/>
  <flow id="JF37349" begin="60" fromJunction="J2" toJunction="J3" end="120" vehsPerHour="64.55578513251156"/>
  <flow id="JF37350" begin="60" fromJunction="J2" toJunction="J4" end="120" vehsPerHour="25.05944711602295"/>
  <flow id="JF37351" begin="60" fromJunction="J3" toJunction="J0" end="120" vehsPerHour="20.389078749061724"/>
  <flow id="JF37352" begin="60" fromJunction="J3" toJunction="J4" end="120" vehsPerHour="41.031056845055254"/>
  <flow id="JF37353" begin="60" fromJunction="J4" toJunction="J3" end="120" vehsPerHour="39.47868576604948"/>
  <flow id="JF37354" begin="120" fromJunction="J0" toJunction="J2" end="180" vehsPerHour="57.84163443930718"/>
  <flow id="JF37355" begin="120" fromJunction="J0" toJunction="J3" end="180" vehsPerHour="19.552166820409614"/>
  <flow id="JF37356" begin="120" fromJunction="J0" toJunction="J4" end="180" vehsPerHour="31.530629978097767"/>
  <flow id="JF37357" begin="120" fromJunction="J2" toJunction="J0" end="180" vehsPerHour="112.15459797046192"/>
  <flow id="JF37358" begin="120" fromJunction="J2" toJunction="J3" end="180" vehsPerHour="41.33719763841167"/>
  <flow id="JF37359" begin="120" fromJunction="J2" toJunction="J4" end="180" vehsPerHour="115.72374129934083"/>
  <flow id="JF37360" begin="120" fromJunction="J3" toJunction="J4" end="180" vehsPerHour="9.093332485176711"/>
  <flow id="JF37361" begin="120" fromJunction="J4" toJunction="J2" end="180" vehsPerHour="62.85215167479504"/>
  <flow id="JF37362" begin="120" fromJunction="J4" toJunction="J3" end="180" vehsPerHour="36.62170732057007"/>
  <flow id="JF37363" begin="180" fromJunction="J0" toJunction="J2" end="240" vehsPerHour="17.36349416205251"/>
  <flow id="JF37364" begin="180" fromJunction="J0" toJunction="J3" end="240" vehsPerHour="67.35431439342764"/>
  <flow id="JF37365" begin="180" fromJunction="J0" toJunction="J4" end="240" vehsPerHour="80.30094942767846"/>
  <flow id="JF37366" begin="180" fromJunction="J3" toJunction="J0" end="240" vehsPerHour="115.31856642762409"/>
  <flow id="JF37367" begin="180" fromJunction="J3" toJunction="J2" end="240" vehsPerHour="61.28442510859844"/>
  <flow id="JF37368" begin="180" fromJunction="J4" toJunction="J0" end="240" vehsPerHour="73.09929630004646"/>
  <flow id="JF37369" begin="180" fromJunction="J4" toJunction="J2" end="240" vehsPerHour="103.66632650400258"/>
  <flow id="JF37370" begin="240" fromJunction="J0" toJunction="J3" end="300" vehsPerHour="35.89650292210953"/>
  <flow id="JF37371" begin="240" fromJunction="J2" toJunction="J0" end="300" vehsPerHour="5.048924133058483"/>
  <flow id="JF37372" begin="240" fromJunction="J2" toJunction="J3" end="300" vehsPerHour="19.53955118576041"/>
  <flow id="JF37373" begin="240" fromJunction="J2" toJunction="J4" end="300" vehsPerHour="75.66905573061064"/>
  <flow id="JF37374" begin="240" fromJunction="J3" toJunction="J2" end="300" vehsPerHour="46.097804632555494"/>
  <flow id="JF37375" begin="240" fromJunction="J3" toJunction="J4" end="300" vehsPerHour="132.56933636973827"/>
  <flow id="JF37376" begin="240" fromJunction="J4" toJunction="J0" end="300" vehsPerHour="2.712007381301367"/>
  <flow id="JF37377" begin="240" fromJunction="J4" toJunction="J3" end="300" vehsPerHour="118.61065202242648"/>
  <flow id="JF37378" begin="300" fromJunction="J0" toJunction="J2" end="360" vehsPerHour="11.594858344977938"/>
  <flow id="JF37379" begin="300" fromJunction="J0" toJunction="J4" end="360" vehsPerHour="135.2815811176561"/>
  <flow id="JF37380" begin="300" fromJunction="J2" toJunction="J0" end="360" vehsPerHour="121.22883639572878"/>
  <flow id="JF37381" begin="300" fromJunction="J2" toJunction="J3" end="360" vehsPerHour="40.6796937072295"/>
  <flow id="JF37382" begin="300" fromJunction="J2" toJunction="J4" end="360" vehsPerHour="96.8544690645518"/>
  <flow id="JF37383" begin="300" fromJunction="J4" toJunction="J0" end="360" vehsPerHour="94.27153566116614"/>
  <flow id="JF37384" begin="300" fromJunction="J4" toJunction="J2" end="360" vehsPerHour="0.7656592158505661"/>
  <flow id="JF37385" begin="300" fromJunction="J4" toJunction="J3" end="360" vehsPerHour="41.336506953365394"/>
  <flow id="JF37386" begin="360" fromJunction="J0" toJunction="J2" end="420" vehsPerHour="10.07277003792413"/>
  <flow id="JF37387" begin="360" fromJunction="J0" toJunction="J3" end="420" vehsPerHour="83.51165687580281"/>
  <flow id="JF37388" begin="360" fromJunction="J0" toJunction="J4" end="420" vehsPerHour="23.773908377969914"/>
  <flow id="JF37389" begin="360" fromJunction="J2" toJunction="J0" end="420" vehsPerHour="96.85930342766162"/>
  <flow id="JF37390" begin="360" fromJunction="J2" toJunction="J3" end="420" vehsPerHour="41.93618544160234"/>
  <flow id="JF37391" begin="360" fromJunction="J2" toJunction="J4" end="420" vehsPerHour="3.0813688857188075"/>
  <flow id="JF37392" begin="360" fromJunction="J3" toJunction="J0" end="420" vehsPerHour="73.9915633953338"/>
  <flow id="JF37393" begin="360" fromJunction="J3" toJunction="J2" end="420" vehsPerHour="109.98757091480931"/>
  <flow id="JF37394" begin="360" fromJunction="J3" toJunction="J4" end="420" vehsPerHour="49.3819901930034"/>
  <flow id="JF37395" begin="360" fromJunction="J4" toJunction="J0" end="420" vehsPerHour="30.536089289362877"/>
  <flow id="JF37396" begin="360" fromJunction="J4" toJunction="J2" end="420" vehsPerHour="75.18066204667102"/>
  <flow id="JF37397" begin="360" fromJunction="J4" toJunction="J3" end="420" vehsPerHour="30.377792600437946"/>
  <flow id="JF37398" begin="420" fromJunction="J0" toJunction="J3" end="480" vehsPerHour="5.660947820987878"/>
  <flow id="JF37399" begin="420" fromJunction="J0" toJunction="J4" end="480" vehsPerHour="131.92504117699434"/>
  <flow id="JF37400" begin="420" fromJunction="J2" toJunction="J4" end="480" vehsPerHour="98.56161328788995"/>
  <flow id="JF37401" begin="420" fromJunction="J3" toJunction="J0" end="480" vehsPerHour="44.776714733113636"/>
  <flow id="JF37402" begin="420" fromJunction="J3" toJunction="J2" end="480" vehsPerHour="58.64879433759742"/>
  <flow id="JF37403" begin="420" fromJunction="J3" toJunction="J4" end="480" vehsPerHour="43.67520779119495"/>
  <flow id="JF37404" begin="420" fromJunction="J4" toJunction="J0" end="480" vehsPerHour="53.58472745265147"/>
  <flow id="JF37405" begin="420" fromJunction="J4" toJunction="J3" end="480" vehsPerHour="88.14871524001094"/>
  <flow id="JF37406" begin="480" fromJunction="J0" toJunction="J2" end="540" vehsPerHour="118.38925770211675"/>
  <flow id="JF37407" begin="480" fromJunction="J0" toJunction="J3" end="540" vehsPerHour="72.08420206525881"/>
  <flow id="JF37408" begin="480" fromJunction="J2" toJunction="J0" end="540" vehsPerHour="88.9960222574609"/>
  <flow id="JF37409" begin="480" fromJunction="J2" toJunction="J3" end="540" vehsPerHour="130.5161368302023"/>
  <flow id="JF37410" begin="480" fromJunction="J2" toJunction="J4" end="540" vehsPerHour="93.53738164513813"/>
  <flow id="JF37411" begin="480" fromJunction="J3" toJunction="J0" end="540" vehsPerHour="39.25486926710542"/>
  <flow id="JF37412" begin="480" fromJunction="J3" toJunction="J2" end="540" vehsPerHour="83.11290685929903"/>
  <flow id="JF37413" begin="480" fromJunction="J3" toJunction="J4" end="540" vehsPerHour="38.100741855194826"/>
  <flow id="JF37414" begin="480" fromJunction="J4" toJunction="J0" end="540" vehsPerHour="115.09159734986264"/>
  <flow id="JF37415" begin="480" fromJunction="J4" toJunction="J2" end="540" vehsPerHour="65.09421649707201"/>
  <flow id="JF37416" begin="480" fromJunction="J4" toJunction="J3" end="540" vehsPerHour="86.45073914453823"/>
  <flow id="JF37417" begin="540" fromJunction="J0" toJunction="J3" end="600" vehsPerHour="118.03424136830873"/>
  <flow id="JF37418" begin="540" fromJunction="J2" toJunction="J3" end="600" vehsPerHour="3.4038602538236535"/>
  <flow id="JF37419" begin="540" fromJunction="J3" toJunction="J0" end="600" vehsPerHour="8.74226526544542"/>
  <flow id="JF37420" begin="540" fromJunction="J3" toJunction="J2" end="600" vehsPerHour="84.22369130796736"/>
  <flow id="JF37421" begin="540" fromJunction="J3" toJunction="J4" end="600" vehsPerHour="52.39996349633962"/>
  <flow id="JF37422" begin="540" fromJunction="J4" toJunction="J2" end="600" vehsPerHour="104.72251995912805"/>
  <flow id="JF37423" begin="600" fromJunction="J0" toJunction="J3" end="660" vehsPerHour="37.139555582320504"/>
  <flow id="JF37424" begin="600" fromJunction="J0" toJunction="J4" end="660" vehsPerHour="116.30247598491634"/>
  <flow id="JF37425" begin="600" fromJunction="J2" toJunction="J0" end="660" vehsPerHour="64.96624034476524"/>
  <flow id="JF37426" begin="600" fromJunction="J2" toJunction="J3" end="660" vehsPerHour="130.35880145876084"/>
  <flow id="JF37427" begin="600" fromJunction="J2" toJunction="J4" end="660" vehsPerHour="134.3598290013809"/>
  <flow id="JF37428" begin="600" fromJunction="J3" toJunction="J4" end="660" vehsPerHour="5.013231046990782"/>
  <flow id="JF37429" begin="600" fromJunction="J4" toJunction="J0" end="660" vehsPerHour="7.3773234731984285"/>
  <flow id="JF37430" begin="600" fromJunction="J4" toJunction="J3" end="660" vehsPerHour="121.88623056099443"/>
  <flow id="JF37431" begin="660" fromJunction="J0" toJunction="J2" end="720" vehsPerHour="136.90402898410542"/>
  <flow id="JF37432" begin="660" fromJunction="J0" toJunction="J4" end="720" vehsPerHour="92.23863959100612"/>
  <flow id="JF37433" begin="660" fromJunction="J2" toJunction="J3" end="720" vehsPerHour="47.74161130592146"/>
  <flow id="JF37434" begin="660" fromJunction="J2" toJunction="J4" end="720" vehsPerHour="6.599524252067514"/>
  <flow id="JF37435" begin="660" fromJunction="J3" toJunction="J0" end="720" vehsPerHour="102.53177841041871"/>
  <flow id="JF37436" begin="660" fromJunction="J4" toJunction="J0" end="720" vehsPerHour="136.70728003397298"/>
  <flow id="JF37437" begin="660" fromJunction="J4" toJunction="J2" end="720" vehsPerHour="83.25140507359025"/>
  <flow id="JF37438" begin="660" fromJunction="J4" toJunction="J3" end="720" vehsPerHour="137.31306511668174"/>
  <flow id="JF37439" begin="720" fromJunction="J0" toJunction="J2" end="780" vehsPerHour="7.857235107594797"/>
  <flow id="JF37440" begin="720" fromJunction="J0" toJunction="J3" end="780" vehsPerHour="80.0787776696704"/>
  <flow id="JF37441" begin="720" fromJunction="J0" toJunction="J4" end="780" vehsPerHour="68.60743856275457"/>
  <flow id="JF37442" begin="720" fromJunction="J2" toJunction="J4" end="780" vehsPerHour="33.83047410596879"/>
  <flow id="JF37443" begin="720" fromJunction="J3" toJunction="J0" end="780" vehsPerHour="34.01086605616667"/>
  <flow id="JF37444" begin="720" fromJunction="J4" toJunction="J0" end="780" vehsPerHour="53.42748234872196"/>
  <flow id="JF37445" begin="720" fromJunction="J4" toJunction="J3" end="780" vehsPerHour="41.09896051356547"/>
  <flow id="JF37446" begin="780" fromJunction="J0" toJunction="J2" end="840" vehsPerHour="76.87056526829997"/>
  <flow id="JF37447" begin="780" fromJunction="J0" toJunction="J3" end="840" vehsPerHour="59.868983847416175"/>
  <flow id="JF37448" begin="780" fromJunction="J2" toJunction="J0" end="840" vehsPerHour="46.0098706093117"/>
  <flow id="JF37449" begin="780" fromJunction="J2" toJunction="J3" end="840" vehsPerHour="132.63100486082075"/>
  <flow id="JF37450" begin="780" fromJunction="J3" toJunction="J0" end="840" vehsPerHour="76.61026335071186"/>
  <flow id="JF37451" begin="780" fromJunction="J3" toJunction="J2" end="840" vehsPerHour="27.562081031586164"/>
  <flow id="JF37452" begin="780" fromJunction="J3" toJunction="J4" end="840" vehsPerHour="36.33563422614766"/>
  <flow id="JF37453" begin="780" fromJunction="J4" toJunction="J0" end="840" vehsPerHour="46.6352059450849"/>
  <flow id="JF37454" begin="780" fromJunction="J4" toJunction="J2" end="840" vehsPerHour="119.88401862588833"/>
  <flow id="JF37455" begin="780" fromJunction="J4" toJunction="J3" end="840" vehsPerHour="75.9294524581146"/>
  <flow id="JF37456" begin="840" fromJunction="J0" toJunction="J2" end="900" vehsPerHour="124.67428330487918"/>
  <flow id="JF37457" begin="840" fromJunction="J0" toJunction="J3" end="900" vehsPerHour="88.40374229144052"/>
  <flow id="JF37458" begin="840" fromJunction="J2" toJunction="J0" end="900" vehsPerHour="39.275724938492125"/>
  <flow id="JF37459" begin="840" fromJunction="J2" toJunction="J4" end="900" vehsPerHour="25.52706029711296"/>
  <flow id="JF37460" begin="840" fromJunction="J3" toJunction="J0" end="900" vehsPerHour="52.64064672683976"/>
  <flow id="JF37461" begin="840" fromJunction="J3" toJunction="J2" end="900" vehsPerHour="27.713606041385805"/>
  <flow id="JF37462" begin="840" fromJunction="J3" toJunction="J4" end="900" vehsPerHour="88.9206342017409"/>
  <flow id="JF37463" begin="840" fromJunction="J4" toJunction="J0" end="900" vehsPerHour="32.34506460442929"/>
  <flow id="JF37464" begin="840" fromJunction="J4" toJunction="J2" end="900" vehsPerHour="114.58092839907292"/>
  <flow id="JF37465" begin="900" fromJunction="J0" toJunction="J3" end="960" vehsPerHour="130.36401258617522"/>
  <flow id="JF37466" begin="900" fromJunction="J0" toJunction="J4" end="960" vehsPerHour="7.680324364328908"/>
  <flow id="JF37467" begin="900" fromJunction="J2" toJunction="J3" end="960" vehsPerHour="118.8041504701356"/>
  <flow id="JF37468" begin="900" fromJunction="J3" toJunction="J4" end="960" vehsPerHour="81.8520529528554"/>
  <flow id="JF37469" begin="900" fromJunction="J4" toJunction="J0" end="960" vehsPerHour="51.43293035734133"/>
  <flow id="JF37470" begin="960" fromJunction="J0" toJunction="J3" end="1020" vehsPerHour="83.26669151750382"/>
  <flow id="JF37471" begin="960" fromJunction="J0" toJunction="J4" end="1020" vehsPerHour="119.99286748497573"/>
  <flow id="JF37472" begin="960" fromJunction="J2" toJunction="J0" end="1020" vehsPerHour="96.97700866594273"/>
  <flow id="JF37473" begin="960" fromJunction="J2" toJunction="J3" end="1020" vehsPerHour="112.06936212411317"/>
  <flow id="JF37474" begin="960" fromJunction="J3" toJunction="J0" end="1020" vehsPerHour="2.508261083285832"/>
  <flow id="JF37475" begin="960" fromJunction="J3" toJunction="J2" end="1020" vehsPerHour="47.01493292932419"/>
  <flow id="JF37476" begin="960" fromJunction="J3" toJunction="J4" end="1020" vehsPerHour="2.9766755632552835"/>
  <flow id="JF37477" begin="960" fromJunction="J4" toJunction="J0" end="1020" vehsPerHour="40.123139018718064"/>
  <flow id="JF37478" begin="960" fromJunction="J4" toJunction="J2" end="1020" vehsPerHour="36.80214427044746"/>
  <flow id="JF37479" begin="960" fromJunction="J4" toJunction="J3" end="1020" vehsPerHour="124.32850633659655"/>
  <flow id="JF37480" begin="1020" fromJunction="J0" toJunction="J2" end="1080" vehsPerHour="101.81917730349102"/>
  <flow id="JF37481" begin="1020" fromJunction="J0" toJunction="J3" end="1080" vehsPerHour="39.188346539269695"/>
  <flow id="JF37482" begin="1020" fromJunction="J0" toJunction="J4" end="1080" vehsPerHour="64.23364863552801"/>
  <flow id="JF37483" begin="1020" fromJunction="J2" toJunction="J0" end="1080" vehsPerHour="62.89494472849981"/>
  <flow id="JF37484" begin="1020" fromJunction="J2" toJunction="J3" end="1080" vehsPerHour="20.81192890813415"/>
  <flow id="JF37485" begin="1020" fromJunction="J2" toJunction="J4" end="1080" vehsPerHour="31.518089130937497"/>
  <flow id="JF37486" begin="1020" fromJunction="J3" toJunction="J2" end="1080" vehsPerHour="15.555377767780865"/>
  <flow id="JF37487" begin="1020" fromJunction="J3" toJunction="J4" end="1080" vehsPerHour="125.78650378043919"/>
  <flow id="JF37488" begin="1020" fromJunction="J4" toJunction="J2" end="1080" vehsPerHour="129.76015373656287"/>
  <flow id="JF37489" begin="1020" fromJunction="J4" toJunction="J3" end="1080" vehsPerHour="31.74597760799846"/>
  <flow id="JF37490" begin="1080" fromJunction="J0" toJunction="J2" end="1140" vehsPerHour="95.56837115433353"/>
  <flow id="JF37491" begin="1080" fromJunction="J0" toJunction="J3" end="1140" vehsPerHour="12.321547821640664"/>
  <flow id="JF37492" begin="1080" fromJunction="J0" toJunction="J4" end="1140" vehsPerHour="61.526393436330814"/>
  <flow id="JF37493" begin="1080" fromJunction="J2" toJunction="J0" end="1140" vehsPerHour="42.85670136377247"/>
  <flow id="JF37494" begin="1080" fromJunction="J3" toJunction="J0" end="1140" vehsPerHour="96.13157649837508"/>
  <flow id="JF37495" begin="1080" fromJunction="J3" toJunction="J2" end="1140" vehsPerHour="77.3009109118178"/>
  <flow id="JF37496" begin="1080" fromJunction="J3" toJunction="J4" end="1140" vehsPerHour="53.64380960883042"/>
  <flow id="JF37497" begin="1080" fromJunction="J4" toJunction="J0" end="1140" vehsPerHour="12.949951732150721"/>
  <flow id="JF37498" begin="1080" fromJunction="J4" toJunction="J3" end="1140" vehsPerHour="35.393268674686134"/>
  <flow id="JF37499" begin="1140" fromJunction="J0" toJunction="J4" end="1200" vehsPerHour="109.52166951725165"/>
  <flow id="JF37500" begin="1140" fromJunction="J2" toJunction="J0" end="1200" vehsPerHour="109.51910111021047"/>
  <flow id="JF37501" begin="1140" fromJunction="J2" toJunction="J3" end="1200" vehsPerHour="93.52989658876686"/>
  <flow id="JF37502" begin="1140" fromJunction="J2" toJunction="J4" end="1200" vehsPerHour="47.218498084018755"/>
  <flow id="JF37503" begin="1140" fromJunction="J3" toJunction="J0" end="1200" vehsPerHour="137.06624033973821"/>
  <flow id="JF37504" begin="1140" fromJunction="J3" toJunction="J2" end="1200" vehsPerHour="57.183385754902645"/>
  <flow id="JF37505" begin="1140" fromJunction="J3" toJunction="J4" end="1200" vehsPerHour="12.817879692362467"/>
  <flow id="JF37506" begin="1140" fromJunction="J4" toJunction="J0" end="1200" vehsPerHour="90.40894308255102"/>
  <flow id="JF37507" begin="1140" fromJunction="J4" toJunction="J3" end="1200" vehsPerHour="15.292331736778689"/>
  <flow id="JF37508" begin="1200" fromJunction="J0" toJunction="J2" end="1260" vehsPerHour="24.40157033801033"/>
  <flow id="JF37509" begin="1200" fromJunction="J0" toJunction="J3" end="1260" vehsPerHour="56.02114975147891"/>
  <flow id="JF37510" begin="1200" fromJunction="J0" toJunction="J4" end="1260" vehsPerHour="126.3855896144456"/>
  <flow id="JF37511" begin="1200" fromJunction="J2" toJunction="J0" end="1260" vehsPerHour="3.6439631313667347"/>
  <flow id="JF37512" begin="1200" fromJunction="J2" toJunction="J3" end="1260" vehsPerHour="77.79678457964138"/>
  <flow id="JF37513" begin="1200" fromJunction="J2" toJunction="J4" end="1260" vehsPerHour="38.40915627977067"/>
  <flow id="JF37514" begin="1200" fromJunction="J3" toJunction="J0" end="1260" vehsPerHour="86.86644783603518"/>
  <flow id="JF37515" begin="1200" fromJunction="J3" toJunction="J2" end="1260" vehsPerHour="97.93814163578017"/>
  <flow id="JF37516" begin="1200" fromJunction="J3" toJunction="J4" end="1260" vehsPerHour="93.84887068791514"/>
  <flow id="JF37517" begin="1200" fromJunction="J4" toJunction="J2" end="1260" vehsPerHour="60.744293542922584"/>
  <flow id="JF37518" begin="1260" fromJunction="J2" toJunction="J0" end="1320" vehsPerHour="53.656794264744335"/>
  <flow id="JF37519" begin="1260" fromJunction="J2" toJunction="J3" end="1320" vehsPerHour="112.6072572099342"/>
  <flow id="JF37520" begin="1260" fromJunction="J2" toJunction="J4" end="1320" vehsPerHour="17.783821046567184"/>
  <flow id="JF37521" begin="1260" fromJunction="J3" toJunction="J2" end="1320" vehsPerHour="6.962905087730722"/>
  <flow id="JF37522" begin="1260" fromJunction="J3" toJunction="J4" end="1320" vehsPerHour="9.091359998149734"/>
  <flow id="JF37523" begin="1260" fromJunction="J4" toJunction="J0" end="1320" vehsPerHour="33.96037537210163"/>
  <flow id="JF37524" begin="1260" fromJunction="J4" toJunction="J2" end="1320" vehsPerHour="118.8449521593875"/>
  <flow id="JF37525" begin="1260" fromJunction="J4" toJunction="J3" end="1320" vehsPerHour="99.20489881553047"/>
  <flow id="JF37526" begin="1320" fromJunction="J0" toJunction="J3" end="1380" vehsPerHour="27.82462869270152"/>
  <flow id="JF37527" begin="1320" fromJunction="J0" toJunction="J4" end="1380" vehsPerHour="69.49339409638172"/>
  <flow id="JF37528" begin="1320" fromJunction="J2" toJunction="J0" end="1380" vehsPerHour="132.01620649125272"/>
  <flow id="JF37529" begin="1320" fromJunction="J2" toJunction="J3" end="1380" vehsPerHour="99.8184746444865"/>
  <flow id="JF37530" begin="1320" fromJunction="J2" toJunction="J4" end="1380" vehsPerHour="111.6694730297026"/>
  <flow id="JF37531" begin="1320" fromJunction="J3" toJunction="J0" end="1380" vehsPerHour="80.87002079170422"/>
  <flow id="JF37532" begin="1320" fromJunction="J3" toJunction="J4" end="1380" vehsPerHour="88.41194926655517"/>
  <flow id="JF37533" begin="1320" fromJunction="J4" toJunction="J0" end="1380" vehsPerHour="30.00042502859402"/>
  <flow id="JF37534" begin="1320" fromJunction="J4" toJunction="J2" end="1380" vehsPerHour="102.27305274883825"/>
  <flow id="JF37535" begin="1320" fromJunction="J4" toJunction="J3" end="1380" vehsPerHour="5.389194326732528"/>
  <flow id="JF37536" begin="1380" fromJunction="J0" toJunction="J2" end="1440" vehsPerHour="38.60129723095442"/>
  <flow id="JF37537" begin="1380" fromJunction="J0" toJunction="J3" end="1440" vehsPerHour="133.3873588225927"/>
  <flow id="JF37538" begin="1380" fromJunction="J2" toJunction="J3" end="1440" vehsPerHour="34.97193238432792"/>
  <flow id="JF37539" begin="1380" fromJunction="J3" toJunction="J0" end="1440" vehsPerHour="107.2545878538407"/>
  <flow id="JF37540" begin="1380" fromJunction="J3" toJunction="J4" end="1440" vehsPerHour="106.76432545999116"/>
  <flow id="JF37541" begin="1380" fromJunction="J4" toJunction="J0" end="1440" vehsPerHour="7.7864845417176065"/>
  <flow id="JF37542" begin="1380" fromJunction="J4" toJunction="J2" end="1440" vehsPerHour="35.44668138224667"/>
  <flow id="JF37543" begin="1380" fromJunction="J4" toJunction="J3" end="1440" vehsPerHour="135.11882227462314"/>
  <flow id="JF37544" begin="1440" fromJunction="J0" toJunction="J2" end="1500" vehsPerHour="12.554009635588889"/>
  <flow id="JF37545" begin="1440" fromJunction="J2" toJunction="J0" end="1500" vehsPerHour="60.904300062799074"/>
  <flow id="JF37546" begin="1440" fromJunction="J2" toJunction="J4" end="1500" vehsPerHour="62.16355047848274"/>
  <flow id="JF37547" begin="1440" fromJunction="J3" toJunction="J0" end="1500" vehsPerHour="15.963675366044889"/>
  <flow id="JF37548" begin="1440" fromJunction="J3" toJunction="J2" end="1500" vehsPerHour="47.783855143484224"/>
  <flow id="JF37549" begin="1440" fromJunction="J3" toJunction="J4" end="1500" vehsPerHour="88.48904010283599"/>
  <flow id="JF37550" begin="1440" fromJunction="J4" toJunction="J2" end="1500" vehsPerHour="115.51401780663888"/>
  <flow id="JF37551" begin="1500" fromJunction="J0" toJunction="J2" end="1560" vehsPerHour="4.220820888283697"/>
  <flow id="JF37552" begin="1500" fromJunction="J0" toJunction="J3" end="1560" vehsPerHour="110.7379255527863"/>
  <flow id="JF37553" begin="1500" fromJunction="J0" toJunction="J4" end="1560" vehsPerHour="67.50746092025436"/>
  <flow id="JF37554" begin="1500" fromJunction="J2" toJunction="J0" end="1560" vehsPerHour="115.15520051348055"/>
  <flow id="JF37555" begin="1500" fromJunction="J2" toJunction="J3" end="1560" vehsPerHour="102.43256342421515"/>
  <flow id="JF37556" begin="1500" fromJunction="J2" toJunction="J4" end="1560" vehsPerHour="135.4736837710213"/>
  <flow id="JF37557" begin="1500" fromJunction="J3" toJunction="J0" end="1560" vehsPerHour="70.29735632393319"/>
  <flow id="JF37558" begin="1500" fromJunction="J3" toJunction="J2" end="1560" vehsPerHour="133.57537469866722"/>
  <flow id="JF37559" begin="1500" fromJunction="J4" toJunction="J0" end="1560" vehsPerHour="110.88849115156579"/>
  <flow id="JF37560" begin="1500" fromJunction="J4" toJunction="J2" end="1560" vehsPerHour="74.51064522816384"/>
  <flow id="JF37561" begin="1500" fromJunction="J4" toJunction="J3" end="1560" vehsPerHour="114.46218560870375"/>
  <flow id="JF37562" begin="1560" fromJunction="J0" toJunction="J2" end="1620" vehsPerHour="68.50547491121088"/>
  <flow id="JF37563" begin="1560" fromJunction="J0" toJunction="J3" end="1620" vehsPerHour="60.974339865429336"/>
  <flow id="JF37564" begin="1560" fromJunction="J2" toJunction="J0" end="1620" vehsPerHour="81.7496238428735"/>
  <flow id="JF37565" begin="1560" fromJunction="J3" toJunction="J0" end="1620" vehsPerHour="2.863699711709215"/>
  <flow id="JF37566" begin="1560" fromJunction="J3" toJunction="J2" end="1620" vehsPerHour="73.02042472424596"/>
  <flow id="JF37567" begin="1560" fromJunction="J3" toJunction="J4" end="1620" vehsPerHour="102.29781458299284"/>
  <flow id="JF37568" begin="1560" fromJunction="J4" toJunction="J0" end="1620" vehsPerHour="95.38527518000043"/>
  <flow id="JF37569" begin="1560" fromJunction="J4" toJunction="J2" end="1620" vehsPerHour="20.96513297444173"/>
  <flow id="JF37570" begin="1560" fromJunction="J4" toJunction="J3" end="1620" vehsPerHour="109.36840193174392"/>
  <flow id="JF37571" begin="1620" fromJunction="J0" toJunction="J4" end="1680" vehsPerHour="10.585540220324853"/>
  <flow id="JF37572" begin="1620" fromJunction="J2" toJunction="J0" end="1680" vehsPerHour="33.682374134116195"/>
  <flow id="JF37573" begin="1620" fromJunction="J2" toJunction="J3" end="1680" vehsPerHour="47.72589832000046"/>
  <flow id="JF37574" begin="1620" fromJunction="J2" toJunction="J4" end="1680" vehsPerHour="79.46899523559483"/>
  <flow id="JF37575" begin="1620" fromJunction="J3" toJunction="J0" end="1680" vehsPerHour="106.57028771991898"/>
  <flow id="JF37576" begin="1620" fromJunction="J3" toJunction="J4" end="1680" vehsPerHour="20.753215470241535"/>
  <flow id="JF37577" begin="1620" fromJunction="J4" toJunction="J0" end="1680" vehsPerHour="129.41058852390603"/>
  <flow id="JF37578" begin="1620" fromJunction="J4" toJunction="J2" end="1680" vehsPerHour="98.24039222540435"/>
  <flow id="JF37579" begin="1680" fromJunction="J0" toJunction="J3" end="1740" vehsPerHour="16.527973848430314"/>
  <flow id="JF37580" begin="1680" fromJunction="J0" toJunction="J4" end="1740" vehsPerHour="85.88447012382309"/>
  <flow id="JF37581" begin="1680" fromJunction="J2" toJunction="J0" end="1740" vehsPerHour="80.05456775544442"/>
  <flow id="JF37582" begin="1680" fromJunction="J2" toJunction="J3" end="1740" vehsPerHour="64.26889168865273"/>
  <flow id="JF37583" begin="1680" fromJunction="J3" toJunction="J4" end="1740" vehsPerHour="18.850414473463108"/>
  <flow id="JF37584" begin="1680" fromJunction="J4" toJunction="J0" end="1740" vehsPerHour="81.26173777567746"/>
  <flow id="JF37585" begin="1680" fromJunction="J4" toJunction="J2" end="1740" vehsPerHour="25.002222312646854"/>
  <flow id="JF37586" begin="1680" fromJunction="J4" toJunction="J3" end="1740" vehsPerHour="134.58468705405625"/>
  <flow id="JF37587" begin="1740" fromJunction="J0" toJunction="J2" end="1800" vehsPerHour="42.98856161021835"/>
  <flow id="JF37588" begin="1740" fromJunction="J0" toJunction="J4" end="1800" vehsPerHour="67.57800718933426"/>
  <flow id="JF37589" begin="1740" fromJunction="J2" toJunction="J0" end="1800" vehsPerHour="28.08502263130777"/>
  <flow id="JF37590" begin="1740" fromJunction="J2" toJunction="J4" end="1800" vehsPerHour="40.55105330266909"/>
  <flow id="JF37591" begin="1740" fromJunction="J3" toJunction="J0" end="1800" vehsPerHour="94.0530969433658"/>
  <flow id="JF37592" begin="1740" fromJunction="J3" toJunction="J2" end="1800" vehsPerHour="36.46781652527429"/>
  <flow id="JF37593" begin="1740" fromJunction="J3" toJunction="J4" end="1800" vehsPerHour="107.74391114621648"/>
  <flow id="JF37594" begin="1740" fromJunction="J4" toJunction="J0" end="1800" vehsPerHour="45.14428359173183"/>
  <flow id="JF37595" begin="1740" fromJunction="J4" toJunction="J2" end="1800" vehsPerHour="75.02582860772723"/>
  <flow id="JF37596" begin="1740" fromJunction="J4" toJunction="J3" end="1800" vehsPerHour="33.05350408777123"/>
  <flow id="JF37597" begin="1800" fromJunction="J0" toJunction="J2" end="1860" vehsPerHour="119.81546164565503"/>
  <flow id="JF37598" begin="1800" fromJunction="J0" toJunction="J3" end="1860" vehsPerHour="39.65979836966308"/>
  <flow id="JF37599" begin="1800" fromJunction="J0" toJunction="J4" end="1860" vehsPerHour="37.35087150204823"/>
  <flow id="JF37600" begin="1800" fromJunction="J2" toJunction="J0" end="1860" vehsPerHour="65.11858123921805"/>
  <flow id="JF37601" begin="1800" fromJunction="J2" toJunction="J3" end="1860" vehsPerHour="1.8413817867332818"/>
  <flow id="JF37602" begin="1800" fromJunction="J2" toJunction="J4" end="1860" vehsPerHour="35.1384046110005"/>
  <flow id="JF37603" begin="1800" fromJunction="J3" toJunction="J0" end="1860" vehsPerHour="79.0743790346049"/>
  <flow id="JF37604" begin="1800" fromJunction="J4" toJunction="J0" end="1860" vehsPerHour="28.61957479716966"/>
  <flow id="JF37605" begin="1800" fromJunction="J4" toJunction="J2" end="1860" vehsPerHour="42.075840957167394"/>