<?xml version="1.0" encoding="UTF-8"?>
<routes xmlns:xsi="http://www.w3.org/2001/XMLSchema-instance" xsi:noNamespaceSchemaLocation="http://sumo.dlr.de/xsd/routes_file.xsd">
  <flow id="JF35207" begin="0" fromJunction="J0" toJunction="J2" end="60" vehsPerHour="36.92283612023811"/>
  <flow id="JF35208" begin="0" fromJunction="J0" toJunction="J3" end="60" vehsPerHour="109.96128363247236"/>
  <flow id="JF35209" begin="0" fromJunction="J0" toJunction="J4" end="60" vehsPerHour="83.39376034355422"/>
  <flow id="JF35210" begin="0" fromJunction="J2" toJunction="J0" end="60" vehsPerHour="116.64700727240222"/>
  <flow id="JF35211" begin="0" fromJunction="J2" toJunction="J3" end="60" vehsPerHour="60.47883749434248"/>
  <flow id="JF35212" begin="0" fromJunction="J2" toJunction="J4" end="60" vehsPerHour="126.7060056205288"/>
  <flow id="JF35213" begin="0" fromJunction="J4" toJunction="J0" end="60" vehsPerHour="91.5405095487103"/>
  <flow id="JF35214" begin="0" fromJunction="J4" toJunction="J3" end="60" vehsPerHour="119.86866200984333"/>
  <flow id="JF35215" begin="60" fromJunction="J0" toJunction="J2" end="120" vehsPerHour="90.59671413349986"/>
  <flow id="JF35216" begin="60" fromJunction="J0" toJunction="J3" end="120" vehsPerHour="23.965169450640147"/>
  <flow id="JF35217" begin="60" fromJunction="J0" toJunction="J4" end="120" vehsPerHour="70.5952338164223"/>
  <flow id="JF35218" begin="60" fromJunction="J2" toJunction="J0" end="120" vehsPerHour="62.9057258984525"/>
  <flow id="JF35219" begin="60" fromJunction="J2" toJunction="J4" end="120" vehsPerHour="113.3733907248002"/>
  <flow id="JF35220" begin="60" fromJunction="J3" toJunction="J2" end="120" vehsPerHour="110.1955209608984"/>
  <flow id="JF35221" begin="60" fromJunction="J3" toJunction="J4" end="120" vehsPerHour="137.07888508311538"/>
  <flow id="JF35222" begin="60" fromJunction="J4" toJunction="J0" end="120" vehsPerHour="39.929198208825184"/>
  <flow id="JF35223" begin="60" fromJunction="J4" toJunction="J2" end="120" vehsPerHour="47.841678782670186"/>
  <flow id="JF35224" begin="60" fromJunction="J4" toJunction="J3" end="120" vehsPerHour="70.69215033592194"/>
  <flow id="JF35225" begin="120" fromJunction="J0" toJunction="J2" end="180" vehsPerHour="65.11989625276489"/>
  <flow id="JF35226" begin="120" fromJunction="J0" toJunction="J3" end="180" vehsPerHour="29.45800463313158"/>
  <flow id="JF35227" begin="120" fromJunction="J2" toJunction="J0" end="180" vehsPerHour="73.59802777122327"/>
  <flow id="JF35228" begin="120" fromJunction="J2" toJunction="J3" end="180" vehsPerHour="59.28422227572424"/>
  <flow id="JF35229" begin="120" fromJunction="J2" toJunction="J4" end="180" vehsPerHour="69.889278304925"/>
  <flow id="JF35230" begin="120" fromJunction="J3" toJunction="J0" end="180" vehsPerHour="72.48264694953474"/>
  <flow id="JF35231" begin="120" fromJunction="J3" toJunction="J2" end="180" vehsPerHour="109.32507622988824"/>
  <flow id="JF35232" begin="120" fromJunction="J4" toJunction="J0" end="180" vehsPerHour="28.615599157802553"/>
  <flow id="JF35233" begin="180" fromJunction="J0" toJunction="J3" end="240" vehsPerHour="13.618454436199242"/>
  <flow id="JF35234" begin="180" fromJunction="J0" toJunction="J4" end="240" vehsPerHour="8.444938703155087"/>
  <flow id="JF35235" begin="180" fromJunction="J2" toJunction="J0" end="240" vehsPerHour="3.2713310309574526"/>
  <flow id="JF35236" begin="180" fromJunction="J2" toJunction="J3" end="240" vehsPerHour="83.36015248799795"/>
  <flow id="JF35237" begin="180" fromJunction="J2" toJunction="J4" end="240" vehsPerHour="37.69106559668386"/>
  <flow id="JF35238" begin="180" fromJunction="J3" toJunction="J2" end="240" vehsPerHour="52.16899370017256"/>
  <flow id="JF35239" begin="180" fromJunction="J4" toJunction="J0" end="240" vehsPerHour="89.80499493105971"/>
  <flow id="JF35240" begin="180" fromJunction="J4" toJunction="J3" end="240" vehsPerHour="80.42628269546888"/>
  <flow id="JF35241" begin="240" fromJunction="J0" toJunction="J3" end="300" vehsPerHour="29.865788880211458"/>
  <flow id="JF35242" begin="240" fromJunction="J0" toJunction="J4" end="300" vehsPerHour="2.5930795821524617"/>
  <flow id="JF35243" begin="240" fromJunction="J2" toJunction="J0" end="300" vehsPerHour="118.37510028043573"/>
  <flow id="JF35244" begin="240" fromJunction="J3" toJunction="J0" end="300" vehsPerHour="0.8881787133347363"/>
  <flow id="JF35245" begin="240" fromJunction="J3" toJunction="J2" end="300" vehsPerHour="60.34908595720939"/>
  <flow id="JF35246" begin="240" fromJunction="J3" toJunction="J4" end="300" vehsPerHour="125.0587695609938"/>
  <flow id="JF35247" begin="240" fromJunction="J4" toJunction="J0" end="300" vehsPerHour="112.35037960596398"/>
  <flow id="JF35248" begin="240" fromJunction="J4" toJunction="J3" end="300" vehsPerHour="18.66031948722217"/>
  <flow id="JF35249" begin="300" fromJunction="J0" toJunction="J3" end="360" vehsPerHour="43.82811087925612"/>
  <flow id="JF35250" begin="300" fromJunction="J2" toJunction="J0" end="360" vehsPerHour="29.99487420071787"/>
  <flow id="JF35251" begin="300" fromJunction="J2" toJunction="J3" end="360" vehsPerHour="9.128364851468033"/>
  <flow id="JF35252" begin="300" fromJunction="J2" toJunction="J4" end="360" vehsPerHour="38.089005423722035"/>
  <flow id="JF35253" begin="300" fromJunction="J3" toJunction="J0" end="360" vehsPerHour="82.43706726940715"/>
  <flow id="JF35254" begin="300" fromJunction="J3" toJunction="J2" end="360" vehsPerHour="32.244854667611754"/>
  <flow id="JF35255" begin="300" fromJunction="J4" toJunction="J0" end="360" vehsPerHour="89.3030318147843"/>
  <flow id="JF35256" begin="300" fromJunction="J4" toJunction="J3" end="360" vehsPerHour="1.9792068810521117"/>
  <flow id="JF35257" begin="360" fromJunction="J0" toJunction="J2" end="420" vehsPerHour="1.8891186590831297"/>
  <flow id="JF35258" begin="360" fromJunction="J0" toJunction="J3" end="420" vehsPerHour="5.859741566591637"/>
  <flow id="JF35259" begin="360" fromJunction="J2" toJunction="J0" end="420" vehsPerHour="3.946581923618927"/>
  <flow id="JF35260" begin="360" fromJunction="J2" toJunction="J3" end="420" vehsPerHour="80.33322449025296"/>
  <flow id="JF35261" begin="360" fromJunction="J3" toJunction="J0" end="420" vehsPerHour="84.92422950132357"/>
  <flow id="JF35262" begin="360" fromJunction="J3" toJunction="J4" end="420" vehsPerHour="65.13353315338328"/>
  <flow id="JF35263" begin="360" fromJunction="J4" toJunction="J0" end="420" vehsPerHour="25.189938446198045"/>
  <flow id="JF35264" begin="360" fromJunction="J4" toJunction="J2" end="420" vehsPerHour="82.2512985868404"/>
  <flow id="JF35265" begin="420" fromJunction="J0" toJunction="J2" end="480" vehsPerHour="123.5678430573386"/>
  <flow id="JF35266" begin="420" fromJunction="J0" toJunction="J3" end="480" vehsPerHour="89.54484674123563"/>
  <flow id="JF35267" begin="420" fromJunction="J0" toJunction="J4" end="480" vehsPerHour="103.20537662855122"/>
  <flow id="JF35268" begin="420" fromJunction="J2" toJunction="J0" end="480" vehsPerHour="100.4588720984943"/>
  <flow id="JF35269" begin="420" fromJunction="J2" toJunction="J3" end="480" vehsPerHour="106.80198835867061"/>
  <flow id="JF35270" begin="420" fromJunction="J2" toJunction="J4" end="480" vehsPerHour="42.10760394472729"/>
  <flow id="JF35271" begin="420" fromJunction="J3" toJunction="J2" end="480" vehsPerHour="95.23773174636428"/>
  <flow id="JF35272" begin="420" fromJunction="J3" toJunction="J4" end="480" vehsPerHour="98.65656221254945"/>
  <flow id="JF35273" begin="420" fromJunction="J4" toJunction="J0" end="480" vehsPerHour="61.54066194731904"/>
  <flow id="JF35274" begin="420" fromJunction="J4" toJunction="J2" end="480" vehsPerHour="15.171948741673305"/>
  <flow id="JF35275" begin="480" fromJunction="J0" toJunction="J2" end="540" vehsPerHour="63.34720961059203"/>
  <flow id="JF35276" begin="480" fromJunction="J0" toJunction="J3" end="540" vehsPerHour="89.29451532063987"/>
  <flow id="JF35277" begin="480" fromJunction="J0" toJunction="J4" end="540" vehsPerHour="78.70507215367839"/>
  <flow id="JF35278" begin="480" fromJunction="J2" toJunction="J0" end="540" vehsPerHour="8.423385950323897"/>
  <flow id="JF35279" begin="480" fromJunction="J2" toJunction="J3" end="540" vehsPerHour="48.394379264352956"/>
  <flow id="JF35280" begin="480" fromJunction="J3" toJunction="J0" end="540" vehsPerHour="25.27723000776383"/>
  <flow id="JF35281" begin="480" fromJunction="J3" toJunction="J2" end="540" vehsPerHour="9.211133132649797"/>
  <flow id="JF35282" begin="480" fromJunction="J4" toJunction="J0" end="540" vehsPerHour="36.77892071558027"/>
  <flow id="JF35283" begin="540" fromJunction="J0" toJunction="J2" end="600" vehsPerHour="90.10784556534138"/>
  <flow id="JF35284" begin="540" fromJunction="J0" toJunction="J3" end="600" vehsPerHour="11.706252753355813"/>
  <flow id="JF35285" begin="540" fromJunction="J0" toJunction="J4" end="600" vehsPerHour="87.02127493672346"/>
  <flow id="JF35286" begin="540" fromJunction="J2" toJunction="J0" end="600" vehsPerHour="54.2411942538782"/>
  <flow id="JF35287" begin="540" fromJunction="J2" toJunction="J3" end="600" vehsPerHour="68.51020116985876"/>
  <flow id="JF35288" begin="540" fromJunction="J2" toJunction="J4" end="600" vehsPerHour="44.088883666312924"/>
  <flow id="JF35289" begin="540" fromJunction="J3" toJunction="J0" end="600" vehsPerHour="70.46230113779339"/>
  <flow id="JF35290" begin="540" fromJunction="J3" toJunction="J2" end="600" vehsPerHour="67.42779989095779"/>
  <flow id="JF35291" begin="540" fromJunction="J3" toJunction="J4" end="600" vehsPerHour="36.894443217381294"/>
  <flow id="JF35292" begin="540" fromJunction="J4" toJunction="J0" end="600" vehsPerHour="38.71699438137381"/>
  <flow id="JF35293" begin="540" fromJunction="J4" toJunction="J2" end="600" vehsPerHour="128.28658378324732"/>
  <flow id="JF35294" begin="540" fromJunction="J4" toJunction="J3" end="600" vehsPerHour="33.77740882017869"/>
  <flow id="JF35295" begin="600" fromJunction="J0" toJunction="J2" end="660" vehsPerHour="38.633111201202894"/>
  <flow id="JF35296" begin="600" fromJunction="J0" toJunction="J3" end="660" vehsPerHour="7.82102801858028"/>
  <flow id="JF35297" begin="600" fromJunction="J0" toJunction="J4" end="660" vehsPerHour="104.40138283148947"/>
  <flow id="JF35298" begin="600" fromJunction="J2" toJunction="J0" end="660" vehsPerHour="70.93298716332247"/>
  <flow id="JF35299" begin="600" fromJunction="J2" toJunction="J3" end="660" vehsPerHour="46.17467816593256"/>
  <flow id="JF35300" begin="600" fromJunction="J2" toJunction="J4" end="660" vehsPerHour="26.41795295509759"/>
  <flow id="JF35301" begin="600" fromJunction="J3" toJunction="J4" end="660" vehsPerHour="100.38393058335264"/>
  <flow id="JF35302" begin="600" fromJunction="J4" toJunction="J3" end="660" vehsPerHour="43.09077859984712"/>
  <flow id="JF35303" begin="660" fromJunction="J0" toJunction="J3" end="720" vehsPerHour="86.73057816374592"/>
  <flow id="JF35304" begin="660" fromJunction="J2" toJunction="J0" end="720" vehsPerHour="36.4115296630251"/>
  <flow id="JF35305" begin="660" fromJunction="J2" toJunction="J3" end="720" vehsPerHour="129.96474640121895"/>
  <flow id="JF35306" begin="660" fromJunction="J2" toJunction="J4" end="720" vehsPerHour="125.95713632970703"/>
  <flow id="JF35307" begin="660" fromJunction="J3" toJunction="J2" end="720" vehsPerHour="80.91893380741504"/>
  <flow id="JF35308" begin="660" fromJunction="J3" toJunction="J4" end="720" vehsPerHour="80.91191533570442"/>
  <flow id="JF35309" begin="660" fromJunction="J4" toJunction="J2" end="720" vehsPerHour="125.82588421076629"/>
  <flow id="JF35310" begin="660" fromJunction="J4" toJunction="J3" end="720" vehsPerHour="74.69444840592378"/>
  <flow id="JF35311" begin="720" fromJunction="J0" toJunction="J2" end="780" vehsPerHour="15.87095931008831"/>
  <flow id="JF35312" begin="720" fromJunction="J0" toJunction="J3" end="780" vehsPerHour="11.923775698495193"/>
  <flow id="JF35313" begin="720" fromJunction="J0" toJunction="J4" end="780" vehsPerHour="17.686616281188165"/>
  <flow id="JF35314" begin="720" fromJunction="J2" toJunction="J0" end="780" vehsPerHour="53.16037924320739"/>
  <flow id="JF35315" begin="720" fromJunction="J3" toJunction="J0" end="780" vehsPerHour="62.09497216326009"/>
  <flow id="JF35316" begin="720" fromJunction="J3" toJunction="J2" end="780" vehsPerHour="75.4473232209741"/>
  <flow id="JF35317" begin="720" fromJunction="J3" toJunction="J4" end="780" vehsPerHour="81.67511272141581"/>
  <flow id="JF35318" begin="720" fromJunction="J4" toJunction="J0" end="780" vehsPerHour="37.173383962179216"/>
  <flow id="JF35319" begin="720" fromJunction="J4" toJunction="J2" end="780" vehsPerHour="20.410590325306348"/>
  <flow id="JF35320" begin="780" fromJunction="J0" toJunction="J2" end="840" vehsPerHour="24.579810163048087"/>
  <flow id="JF35321" begin="780" fromJunction="J0" toJunction="J4" end="840" vehsPerHour="118.9324565020669"/>
  <flow id="JF35322" begin="780" fromJunction="J2" toJunction="J0" end="840" vehsPerHour="115.3887817794064"/>
  <flow id="JF35323" begin="780" fromJunction="J3" toJunction="J0" end="840" vehsPerHour="84.28960028285225"/>
  <flow id="JF35324" begin="780" fromJunction="J3" toJunction="J4" end="840" vehsPerHour="127.65910937210134"/>
  <flow id="JF35325" begin="780" fromJunction="J4" toJunction="J2" end="840" vehsPerHour="27.83140015477943"/>
  <flow id="JF35326" begin="780" fromJunction="J4" toJunction="J3" end="840" vehsPerHour="58.102236073539444"/>
  <flow id="JF35327" begin="840" fromJunction="J0" toJunction="J3" end="900" vehsPerHour="32.27833061900248"/>
  <flow id="JF35328" begin="840" fromJunction="J0" toJunction="J4" end="900" vehsPerHour="72.68399493176608"/>
  <flow id="JF35329" begin="840" fromJunction="J2" toJunction="J0" end="900" vehsPerHour="125.27935629227662"/>
  <flow id="JF35330" begin="840" fromJunction="J2" toJunction="J3" end="900" vehsPerHour="112.94841772585016"/>
  <flow id="JF35331" begin="840" fromJunction="J2" toJunction="J4" end="900" vehsPerHour="47.41303286313746"/>
  <flow id="JF35332" begin="840" fromJunction="J3" toJunction="J0" end="900" vehsPerHour="56.16898919574073"/>
  <flow id="JF35333" begin="840" fromJunction="J3" toJunction="J2" end="900" vehsPerHour="97.46851509679277"/>
  <flow id="JF35334" begin="840" fromJunction="J3" toJunction="J4" end="900" vehsPerHour="18.014506345848062"/>
  <flow id="JF35335" begin="840" fromJunction="J4" toJunction="J0" end="900" vehsPerHour="87.21825238750354"/>
  <flow id="JF35336" begin="840" fromJunction="J4" toJunction="J3" end="900" vehsPerHour="50.29166982640776"/>
  <flow id="JF35337" begin="900" fromJunction="J0" toJunction="J3" end="960" vehsPerHour="34.62038975599908"/>
  <flow id="JF35338" begin="900" fromJunction="J0" toJunction="J4" end="960" vehsPerHour="92.28944868402715"/>
  <flow id="JF35339" begin="900" fromJunction="J2" toJunction="J0" end="960" vehsPerHour="25.856038704631228"/>
  <flow id="JF35340" begin="900" fromJunction="J2" toJunction="J4" end="960" vehsPerHour="57.10271530666857"/>
  <flow id="JF35341" begin="900" fromJunction="J3" toJunction="J2" end="960" vehsPerHour="40.539540063940734"/>
  <flow id="JF35342" begin="900" fromJunction="J3" toJunction="J4" end="960" vehsPerHour="1.652250808499282"/>
  <flow id="JF35343" begin="900" fromJunction="J4" toJunction="J2" end="960" vehsPerHour="53.29759942903358"/>
  <flow id="JF35344" begin="960" fromJunction="J0" toJunction="J2" end="1020" vehsPerHour="56.95515482570713"/>
  <flow id="JF35345" begin="960" fromJunction="J0" toJunction="J3" end="1020" vehsPerHour="127.46144300906666"/>
  <flow id="JF35346" begin="960" fromJunction="J0" toJunction="J4" end="1020" vehsPerHour="74.99260880494593"/>
  <flow id="JF35347" begin="960" fromJunction="J2" toJunction="J0" end="1020" vehsPerHour="91.94383832222765"/>
  <flow id="JF35348" begin="960" fromJunction="J2" toJunction="J3" end="1020" vehsPerHour="71.11602549812038"/>
  <flow id="JF35349" begin="960" fromJunction="J2" toJunction="J4" end="1020" vehsPerHour="73.36140762758707"/>
  <flow id="JF35350" begin="960" fromJunction="J3" toJunction="J0" end="1020" vehsPerHour="77.69667450341065"/>
  <flow id="JF35351" begin="960" fromJunction="J3" toJunction="J2" end="1020" vehsPerHour="49.93604633341293"/>
  <flow id="JF35352" begin="960" fromJunction="J3" toJunction="J4" end="1020" vehsPerHour="37.85982554768464"/>
  <flow id="JF35353" begin="960" fromJunction="J4" toJunction="J0" end="1020" vehsPerHour="94.70909130962812"/>
  <flow id="JF35354" begin="960" fromJunction="J4" toJunction="J2" end="1020" vehsPerHour="10.977671703022294"/>
  <flow id="JF35355" begin="1020" fromJunction="J0" toJunction="J3" end="1080" vehsPerHour="44.67361241330964"/>
  <flow id="JF35356" begin="1020" fromJunction="J0" toJunction="J4" end="1080" vehsPerHour="64.29784071940334"/>
  <flow id="JF35357" begin="1020" fromJunction="J2" toJunction="J3" end="1080" vehsPerHour="22.03801634928475"/>
  <flow id="JF35358" begin="1020" fromJunction="J2" toJunction="J4" end="1080" vehsPerHour="123.32356123876401"/>
  <flow id="JF35359" begin="1020" fromJunction="J3" toJunction="J0" end="1080" vehsPerHour="82.73515551200835"/>
  <flow id="JF35360" begin="1020" fromJunction="J3" toJunction="J2" end="1080" vehsPerHour="19.25954928451088"/>
  <flow id="JF35361" begin="1020" fromJunction="J3" toJunction="J4" end="1080" vehsPerHour="72.94478944464446"/>
  <flow id="JF35362" begin="1020" fromJunction="J4" toJunction="J0" end="1080" vehsPerHour="100.44219432648222"/>
  <flow id="JF35363" begin="1080" fromJunction="J0" toJunction="J2" end="1140" vehsPerHour="0.11424835285462792"/>
  <flow id="JF35364" begin="1080" fromJunction="J0" toJunction="J3" end="1140" vehsPerHour="61.898926758810305"/>
  <flow id="JF35365" begin="1080" fromJunction="J0" toJunction="J4" end="1140" vehsPerHour="0.35680937749166647"/>
  <flow id="JF35366" begin="1080" fromJunction="J2" toJunction="J4" end="1140" vehsPerHour="99.40309398926846"/>
  <flow id="JF35367" begin="1080" fromJunction="J3" toJunction="J0" end="1140" vehsPerHour="39.63374790212096"/>
  <flow id="JF35368" begin="1080" fromJunction="J3" toJunction="J2" end="1140" vehsPerHour="50.027633304293715"/>
  <flow id="JF35369" begin="1080" fromJunction="J4" toJunction="J0" end="1140" vehsPerHour="53.18573606674304"/>
  <flow id="JF35370" begin="1080" fromJunction="J4" toJunction="J2" end="1140" vehsPerHour="54.64118211147547"/>
  <flow id="JF35371" begin="1140" fromJunction="J0" toJunction="J2" end="1200" vehsPerHour="129.99501904800366"/>
  <flow id="JF35372" begin="1140" fromJunction="J0" toJunction="J3" end="1200" vehsPerHour="25.978288272458535"/>
  <flow id="JF35373" begin="1140" fromJunction="J0" toJunction="J4" end="1200" vehsPerHour="89.00919205449223"/>
  <flow id="JF35374" begin="1140" fromJunction="J2" toJunction="J0" end="1200" vehsPerHour="48.61889406509157"/>
  <flow id="JF35375" begin="1140" fromJunction="J2" toJunction="J3" end="1200" vehsPerHour="131.64016193345591"/>
  <flow id="JF35376" begin="1140" fromJunction="J3" toJunction="J0" end="1200" vehsPerHour="100.61517306722146"/>
  <flow id="JF35377" begin="1140" fromJunction="J3" toJunction="J2" end="1200" vehsPerHour="88.55445693051527"/>
  <flow id="JF35378" begin="1140" fromJunction="J3" toJunction="J4" end="1200" vehsPerHour="42.6372432382635"/>
  <flow id="JF35379" begin="1140" fromJunction="J4" toJunction="J2" end="1200" vehsPerHour="91.45178938632212"/>
  <flow id="JF35380" begin="1140" fromJunction="J4" toJunction="J3" end="1200" vehsPerHour="76.73546953281436"/>
  <flow id="JF35381" begin="1200" fromJunction="J0" toJunction="J4" end="1260" vehsPerHour="13.551047448575023"/>
  <flow id="JF35382" begin="1200" fromJunction="J2" toJunction="J0" end="1260" vehsPerHour="93.33443985079634"/>
  <flow id="JF35383" begin="1200" fromJunction="J2" toJunction="J3" end="1260" vehsPerHour="89.2266746271241"/>
  <flow id="JF35384" begin="1200" fromJunction="J2" toJunction="J4" end="1260" vehsPerHour="67.87270209079388"/>
  <flow id="JF35385" begin="1200" fromJunction="J3" toJunction="J2" end="1260" vehsPerHour="85.65028963927303"/>
  <flow id="JF35386" begin="1200" fromJunction="J3" toJunction="J4" end="1260" vehsPerHour="71.53354254196343"/>
  <flow id="JF35387" begin="1200" fromJunction="J4" toJunction="J0" end="1260" vehsPerHour="36.828205286826694"/>
  <flow id="JF35388" begin="1200" fromJunction="J4" toJunction="J3" end="1260" vehsPerHour="93.61177703611443"/>
  <flow id="JF35389" begin="1260" fromJunction="J0" toJunction="J2" end="1320" vehsPerHour="95.58353737286144"/>
  <flow id="JF35390" begin="1260" fromJunction="J0" toJunction="J3" end="1320" vehsPerHour="118.66962093264235"/>
  <flow id="JF35391" begin="1260" fromJunction="J0" toJunction="J4" end="1320" vehsPerHour="69.21936018360506"/>
  <flow id="JF35392" begin="1260" fromJunction="J2" toJunction="J4" end="1320" vehsPerHour="16.703296316127343"/>
  <flow id="JF35393" begin="1260" fromJunction="J3" toJunction="J0" end="1320" vehsPerHour="80.72932901489207"/>
  <flow id="JF35394" begin="1260" fromJunction="J3" toJunction="J2" end="1320" vehsPerHour="8.043046532983075"/>
  <flow id="JF35395" begin="1260" fromJunction="J3" toJunction="J4" end="1320" vehsPerHour="65.75475609359853"/>
  <flow id="JF35396" begin="1260" fromJunction="J4" toJunction="J0" end="1320" vehsPerHour="89.7389123823709"/>
  <flow id="JF35397" begin="1260" fromJunction="J4" toJunction="J2" end="1320" vehsPerHour="7.727701752591199"/>
  <flow id="JF35398" begin="1320" fromJunction="J0" toJunction="J2" end="1380" vehsPerHour="22.941170650140297"/>
  <flow id="JF35399" begin="1320" fromJunction="J0" toJunction="J3" end="1380" vehsPerHour="71.12514638360766"/>
  <flow id="JF35400" begin="1320" fromJunction="J0" toJunction="J4" end="1380" vehsPerHour="25.14635161208724"/>
  <flow id="JF35401" begin="1320" fromJunction="J2" toJunction="J0" end="1380" vehsPerHour="113.51185356378633"/>
  <flow id="JF35402" begin="1320" fromJunction="J2" toJunction="J3" end="1380" vehsPerHour="50.286062143487015"/>
  <flow id="JF35403" begin="1320" fromJunction="J2" toJunction="J4" end="1380" vehsPerHour="39.561627291114235"/>
  <flow id="JF35404" begin="1320" fromJunction="J3" toJunction="J0" end="1380" vehsPerHour="31.518956290934085"/>
  <flow id="JF35405" begin="1320" fromJunction="J4" toJunction="J2" end="1380" vehsPerHour="81.75811703092289"/>
  <flow id="JF35406" begin="1320" fromJunction="J4" toJunction="J3" end="1380" vehsPerHour="99.5331539164694"/>
  <flow id="JF35407" begin="1380" fromJunction="J0" toJunction="J2" end="1440" vehsPerHour="112.10922247656825"/>
  <flow id="JF35408" begin="1380" fromJunction="J0" toJunction="J3" end="1440" vehsPerHour="78.21681224785192"/>
  <flow id="JF35409" begin="1380" fromJunction="J0" toJunction="J4" end="1440" vehsPerHour="43.37134235533322"/>
  <flow id="JF35410" begin="1380" fromJunction="J2" toJunction="J4" end="1440" vehsPerHour="50.64280357426492"/>
  <flow id="JF35411" begin="1380" fromJunction="J3" toJunction="J0" end="1440" vehsPerHour="51.826425894052626"/>
  <flow id="JF35412" begin="1380" fromJunction="J3" toJunction="J4" end="1440" vehsPerHour="41.556033719606155"/>
  <flow id="JF35413" begin="1380" fromJunction="J4" toJunction="J2" end="1440" vehsPerHour="60.4518917418234"/>
  <flow id="JF35414" begin="1440" fromJunction="J0" toJunction="J4" end="1500" vehsPerHour="60.69635770990858"/>
  <flow id="JF35415" begin="1440" fromJunction="J2" toJunction="J0" end="1500" vehsPerHour="98.01227810775568"/>
  <flow id="JF35416" begin="1440" fromJunction="J2" toJunction="J3" end="1500" vehsPerHour="70.5333096536548"/>
  <flow id="JF35417" begin="1440" fromJunction="J2" toJunction="J4" end="1500" vehsPerHour="104.47356077969978"/>
  <flow id="JF35418" begin="1440" fromJunction="J3" toJunction="J0" end="1500" vehsPerHour="70.16611035858085"/>
  <flow id="JF35419" begin="1440" fromJunction="J3" toJunction="J2" end="1500" vehsPerHour="70.67860655959927"/>
  <flow id="JF35420" begin="1440" fromJunction="J3" toJunction="J4" end="1500" vehsPerHour="105.817120304169"/>
  <flow id="JF35421" begin="1440" fromJunction="J4" toJunction="J0" end="1500" vehsPerHour="19.56657229002038"/>
  <flow id="JF35422" begin="1500" fromJunction="J0" toJunction="J2" end="1560" vehsPerHour="114.79749093798456"/>
  <flow id="JF35423" begin="1500" fromJunction="J0" toJunction="J3" end="1560" vehsPerHour="27.48265962891058"/>
  <flow id="JF35424" begin="1500" fromJunction="J2" toJunction="J0" end="1560" vehsPerHour="130.23846925124727"/>
  <flow id="JF35425" begin="1500" fromJunction="J2" toJunction="J4" end="1560" vehsPerHour="0.1647086630700761"/>
  <flow id="JF35426" begin="1500" fromJunction="J3" toJunction="J2" end="1560" vehsPerHour="7.246527227435352"/>
  <flow id="JF35427" begin="1500" fromJunction="J3" toJunction="J4" end="1560" vehsPerHour="123.51976797560803"/>
  <flow id="JF35428" begin="1500" fromJunction="J4" toJunction="J0" end="1560" vehsPerHour="7.950227652049478"/>
  <flow id="JF35429" begin="1500" fromJunction="J4" toJunction="J2" end="1560" vehsPerHour="40.655587244710446"/>
  <flow id="JF35430" begin="1500" fromJunction="J4" toJunction="J3" end="1560" vehsPerHour="136.3083727580823"/>
  <flow id="JF35431" begin="1560" fromJunction="J0" toJunction="J2" end="1620" vehsPerHour="132.7702648806261"/>
  <flow id="JF35432" begin="1560" fromJunction="J0" toJunction="J3" end="1620" vehsPerHour="31.155381400028503"/>
  <flow id="JF35433" begin="1560" fromJunction="J0" toJunction="J4" end="1620" vehsPerHour="77.35231577478126"/>
  <flow id="JF35434" begin="1560" fromJunction="J3" toJunction="J0" end="1620" vehsPerHour="10.404480361584575"/>
  <flow id="JF35435" begin="1560" fromJunction="J3" toJunction="J2" end="1620" vehsPerHour="94.69693760179844"/>
  <flow id="JF35436" begin="1560" fromJunction="J3" toJunction="J4" end="1620" vehsPerHour="72.13131427011588"/>
  <flow id="JF35437" begin="1560" fromJunction="J4" toJunction="J0" end="1620" vehsPerHour="64.8119020350718"/>
  <flow id="JF35438" begin="1620" fromJunction="J0" toJunction="J2" end="1680" vehsPerHour="128.43615976983259"/>
  <flow id="JF35439" begin="1620" fromJunction="J0" toJunction="J3" end="1680" vehsPerHour="52.06157443748365"/>
  <flow id="JF35440" begin="1620" fromJunction="J0" toJunction="J4" end="1680" vehsPerHour="3.7893384265330172"/>
  <flow id="JF35441" begin="1620" fromJunction="J2" toJunction="J0" end="1680" vehsPerHour="131.77939223601746"/>
  <flow id="JF35442" begin="1620" fromJunction="J2" toJunction="J3" end="1680" vehsPerHour="72.42922757208619"/>
  <flow id="JF35443" begin="1620" fromJunction="J2" toJunction="J4" end="1680" vehsPerHour="130.17649872565696"/>
  <flow id="JF35444" begin="1620" fromJunction="J3" toJunction="J4" end="1680" vehsPerHour="119.290945417236"/>
  <flow id="JF35445" begin="1620" fromJunction="J4" toJunction="J0" end="1680" vehsPerHour="61.36636194345114"/>
  <flow id="JF35446" begin="1620" fromJunction="J4" toJunction="J2" end="1680" vehsPerHour="18.57799364835585"/>
  <flow id="JF35447" begin="1680" fromJunction="J0" toJunction="J2" end="1740" vehsPerHour="125.87576193113584"/>
  <flow id="JF35448" begin="1680" fromJunction="J0" toJunction="J4" end="1740" vehsPerHour="73.58292386058929"/>
  <flow id="JF35449" begin="1680" fromJunction="J2" toJunction="J0" end="1740" vehsPerHour="38.829486752810354"/>
  <flow id="JF35450" begin="1680" fromJunction="J2" toJunction="J3" end="1740" vehsPerHour="56.25154042488134"/>
  <flow id="JF35451" begin="1680" fromJunction="J3" toJunction="J0" end="1740" vehsPerHour="69.07710262007095"/>
  <flow id="JF35452" begin="1680" fromJunction="J3" toJunction="J4" end="1740" vehsPerHour="134.92817550510514"/>
  <flow id="JF35453" begin="1680" fromJunction="J4" toJunction="J2" end="1740" vehsPerHour="6.9570828933375495"/>
  <flow id="JF35454" begin="1680" fromJunction="J4" toJunction="J3" end="1740" vehsPerHour="27.74492186895651"/>
  <flow id="JF35455" begin="1740" fromJunction="J0" toJunction="J2" end="1800" vehsPerHour="11.808317276614172"/>
  <flow id="JF35456" begin="1740" fromJunction="J0" toJunction="J4" end="1800" vehsPerHour="68.4988446746698"/>
  <flow id="JF35457" begin="1740" fromJunction="J2" toJunction="J0" end="1800" vehsPerHour="11.31779604730297"/>
  <flow id="JF35458" begin="1740" fromJunction="J2" toJunction="J3" end="1800" vehsPerHour="64.22530940579895"/>
  <flow id="JF35459" begin="1740" fromJunction="J2" toJunction="J4" end="1800" vehsPerHour="31.083001319328872"/>
  <flow id="JF35460" begin="1740" fromJunction="J3" toJunction="J0" end="1800" vehsPerHour="135.98547119425896"/>
  <flow id="JF35461" begin="1740" fromJunction="J3" toJunction="J2" end="1800" vehsPerHour="17.626181669418443"/>
  <flow id="JF35462" begin="1740" fromJunction="J3" toJunction="J4" end="1800" vehsPerHour="127.47484673285634"/>
  <flow id="JF35463" begin="1740" fromJunction="J4" toJunction="J0" end="1800" vehsPerHour="19.55189938051255"/>
  <flow id="JF35464" begin="1740" fromJunction="J4" toJunction="J3" end="1800" vehsPerHour="28.37194435494113"/>
  <flow id="JF35465" begin="1800" fromJunction="J0" toJunction="J2" end="1860" vehsPerHour="124.87823745585979"/>
  <flow id="JF35466" begin="1800" fromJunction="J0" toJunction="J3" end="1860" vehsPerHour="48.56135941226461"/>
  <flow id="JF35467" begin="1800" fromJunction="J0" toJunction="J4" end="1860" vehsPerHour="129.91831434890443"/>
  <flow id="JF35468" begin="1800" fromJunction="J2" toJunction="J0" end="1860" vehsPerHour="41.51523365997807"/>
  <flow id="JF35469" begin="1800" fromJunction="J2" toJunction="J4" end="1860" vehsPerHour="20.823347978465552"/>
  <flow id="JF35470" begin="1800" fromJunction="J3" toJunction="J0" end="1860" vehsPerHour="36.15302270325352"/>
  <flow id="JF35471" begin="1800" fromJunction="J4" toJunction="J0" end="1860" vehsPerHour="71.40475666907679"/>
  <flow id="JF35472" begin="1800" fromJunction="J4" toJunction="J3" end="1860" vehsPerHour="74.9190586435003"/>