<?xml version="1.0" encoding="UTF-8"?>
<routes xmlns:xsi="http://www.w3.org/2001/XMLSchema-instance" xsi:noNamespaceSchemaLocation="http://sumo.dlr.de/xsd/routes_file.xsd">
  <flow id="JF34488" begin="0" fromJunction="J0" toJunction="J2" end="60" vehsPerHour="36.82599290227396"/>
  <flow id="JF34489" begin="0" fromJunction="J0" toJunction="J4" end="60" vehsPerHour="44.25953433140951"/>
  <flow id="JF34490" begin="0" fromJunction="J2" toJunction="J0" end="60" vehsPerHour="19.972299265417487"/>
  <flow id="JF34491" begin="0" fromJunction="J2" toJunction="J3" end="60" vehsPerHour="8.823033162662501"/>
  <flow id="JF34492" begin="0" fromJunction="J2" toJunction="J4" end="60" vehsPerHour="10.473893215927975"/>
  <flow id="JF34493" begin="0" fromJunction="J3" toJunction="J0" end="60" vehsPerHour="118.06658248297282"/>
  <flow id="JF34494" begin="0" fromJunction="J3" toJunction="J2" end="60" vehsPerHour="87.00948325600574"/>
  <flow id="JF34495" begin="0" fromJunction="J3" toJunction="J4" end="60" vehsPerHour="116.26045939928999"/>
  <flow id="JF34496" begin="0" fromJunction="J4" toJunction="J2" end="60" vehsPerHour="4.249735535621074"/>
  <flow id="JF34497" begin="0" fromJunction="J4" toJunction="J3" end="60" vehsPerHour="4.738705864945096"/>
  <flow id="JF34498" begin="60" fromJunction="J0" toJunction="J2" end="120" vehsPerHour="42.19606486249192"/>
  <flow id="JF34499" begin="60" fromJunction="J0" toJunction="J3" end="120" vehsPerHour="112.95686142027077"/>
  <flow id="JF34500" begin="60" fromJunction="J2" toJunction="J0" end="120" vehsPerHour="18.067561090636953"/>
  <flow id="JF34501" begin="60" fromJunction="J2" toJunction="J3" end="120" vehsPerHour="110.78310658442685"/>
  <flow id="JF34502" begin="60" fromJunction="J2" toJunction="J4" end="120" vehsPerHour="90.23983955009304"/>
  <flow id="JF34503" begin="60" fromJunction="J3" toJunction="J0" end="120" vehsPerHour="107.19207842260988"/>
  <flow id="JF34504" begin="60" fromJunction="J3" toJunction="J4" end="120" vehsPerHour="17.105571233522767"/>
  <flow id="JF34505" begin="60" fromJunction="J4" toJunction="J0" end="120" vehsPerHour="73.56348791046095"/>
  <flow id="JF34506" begin="60" fromJunction="J4" toJunction="J2" end="120" vehsPerHour="39.14333158388946"/>
  <flow id="JF34507" begin="120" fromJunction="J0" toJunction="J2" end="180" vehsPerHour="5.812198808908234"/>
  <flow id="JF34508" begin="120" fromJunction="J0" toJunction="J3" end="180" vehsPerHour="107.35736547125177"/>
  <flow id="JF34509" begin="120" fromJunction="J0" toJunction="J4" end="180" vehsPerHour="97.96257913781629"/>
  <flow id="JF34510" begin="120" fromJunction="J2" toJunction="J3" end="180" vehsPerHour="73.14101224432275"/>
  <flow id="JF34511" begin="120" fromJunction="J3" toJunction="J4" end="180" vehsPerHour="48.232456947048725"/>
  <flow id="JF34512" begin="120" fromJunction="J4" toJunction="J2" end="180" vehsPerHour="53.98375049592483"/>
  <flow id="JF34513" begin="120" fromJunction="J4" toJunction="J3" end="180" vehsPerHour="3.522879176166693"/>
  <flow id="JF34514" begin="180" fromJunction="J0" toJunction="J3" end="240" vehsPerHour="91.2935757799835"/>
  <flow id="JF34515" begin="180" fromJunction="J2" toJunction="J0" end="240" vehsPerHour="78.2760664713136"/>
  <flow id="JF34516" begin="180" fromJunction="J2" toJunction="J3" end="240" vehsPerHour="8.302615978744193"/>
  <flow id="JF34517" begin="180" fromJunction="J3" toJunction="J2" end="240" vehsPerHour="59.2052179383656"/>
  <flow id="JF34518" begin="180" fromJunction="J3" toJunction="J4" end="240" vehsPerHour="131.44781718573802"/>
  <flow id="JF34519" begin="180" fromJunction="J4" toJunction="J2" end="240" vehsPerHour="84.11310112855467"/>
  <flow id="JF34520" begin="180" fromJunction="J4" toJunction="J3" end="240" vehsPerHour="127.24389952113924"/>
  <flow id="JF34521" begin="240" fromJunction="J0" toJunction="J2" end="300" vehsPerHour="43.268898804040724"/>
  <flow id="JF34522" begin="240" fromJunction="J0" toJunction="J4" end="300" vehsPerHour="4.943522665170153"/>
  <flow id="JF34523" begin="240" fromJunction="J2" toJunction="J0" end="300" vehsPerHour="24.206717535488103"/>
  <flow id="JF34524" begin="240" fromJunction="J2" toJunction="J3" end="300" vehsPerHour="4.199048804665726"/>
  <flow id="JF34525" begin="240" fromJunction="J2" toJunction="J4" end="300" vehsPerHour="65.32254910761034"/>
  <flow id="JF34526" begin="240" fromJunction="J3" toJunction="J0" end="300" vehsPerHour="65.2074278040907"/>
  <flow id="JF34527" begin="240" fromJunction="J3" toJunction="J2" end="300" vehsPerHour="126.90993848535729"/>
  <flow id="JF34528" begin="240" fromJunction="J4" toJunction="J3" end="300" vehsPerHour="35.945209174435256"/>
  <flow id="JF34529" begin="300" fromJunction="J0" toJunction="J2" end="360" vehsPerHour="126.01566075187363"/>
  <flow id="JF34530" begin="300" fromJunction="J0" toJunction="J3" end="360" vehsPerHour="23.38201960276429"/>
  <flow id="JF34531" begin="300" fromJunction="J0" toJunction="J4" end="360" vehsPerHour="122.767081103168"/>
  <flow id="JF34532" begin="300" fromJunction="J2" toJunction="J0" end="360" vehsPerHour="29.706746517633864"/>
  <flow id="JF34533" begin="300" fromJunction="J2" toJunction="J3" end="360" vehsPerHour="102.6396038281987"/>
  <flow id="JF34534" begin="300" fromJunction="J3" toJunction="J2" end="360" vehsPerHour="85.77720426708643"/>
  <flow id="JF34535" begin="300" fromJunction="J3" toJunction="J4" end="360" vehsPerHour="62.609850741158304"/>
  <flow id="JF34536" begin="300" fromJunction="J4" toJunction="J0" end="360" vehsPerHour="73.8970002257524"/>
  <flow id="JF34537" begin="300" fromJunction="J4" toJunction="J2" end="360" vehsPerHour="134.31563283707249"/>
  <flow id="JF34538" begin="300" fromJunction="J4" toJunction="J3" end="360" vehsPerHour="97.22332187629965"/>
  <flow id="JF34539" begin="360" fromJunction="J2" toJunction="J0" end="420" vehsPerHour="110.37280635619256"/>
  <flow id="JF34540" begin="360" fromJunction="J2" toJunction="J3" end="420" vehsPerHour="47.22171759936244"/>
  <flow id="JF34541" begin="360" fromJunction="J2" toJunction="J4" end="420" vehsPerHour="87.61145509689912"/>
  <flow id="JF34542" begin="360" fromJunction="J3" toJunction="J0" end="420" vehsPerHour="112.18552951067734"/>
  <flow id="JF34543" begin="360" fromJunction="J3" toJunction="J2" end="420" vehsPerHour="40.08990038853675"/>
  <flow id="JF34544" begin="360" fromJunction="J3" toJunction="J4" end="420" vehsPerHour="94.16063142312045"/>
  <flow id="JF34545" begin="360" fromJunction="J4" toJunction="J0" end="420" vehsPerHour="7.829585265717344"/>
  <flow id="JF34546" begin="360" fromJunction="J4" toJunction="J2" end="420" vehsPerHour="102.95008864143979"/>
  <flow id="JF34547" begin="360" fromJunction="J4" toJunction="J3" end="420" vehsPerHour="124.56196095120258"/>
  <flow id="JF34548" begin="420" fromJunction="J0" toJunction="J2" end="480" vehsPerHour="105.87649845737124"/>
  <flow id="JF34549" begin="420" fromJunction="J0" toJunction="J3" end="480" vehsPerHour="76.76923972697337"/>
  <flow id="JF34550" begin="420" fromJunction="J0" toJunction="J4" end="480" vehsPerHour="124.46088619860686"/>
  <flow id="JF34551" begin="420" fromJunction="J2" toJunction="J0" end="480" vehsPerHour="63.449673658332806"/>
  <flow id="JF34552" begin="420" fromJunction="J2" toJunction="J4" end="480" vehsPerHour="127.14885045509462"/>
  <flow id="JF34553" begin="420" fromJunction="J3" toJunction="J0" end="480" vehsPerHour="134.74633329353267"/>
  <flow id="JF34554" begin="420" fromJunction="J3" toJunction="J2" end="480" vehsPerHour="30.585100123042682"/>
  <flow id="JF34555" begin="420" fromJunction="J3" toJunction="J4" end="480" vehsPerHour="26.758376853266633"/>
  <flow id="JF34556" begin="420" fromJunction="J4" toJunction="J0" end="480" vehsPerHour="41.80428968291829"/>
  <flow id="JF34557" begin="420" fromJunction="J4" toJunction="J2" end="480" vehsPerHour="51.48111950096584"/>
  <flow id="JF34558" begin="420" fromJunction="J4" toJunction="J3" end="480" vehsPerHour="8.030497259615538"/>
  <flow id="JF34559" begin="480" fromJunction="J0" toJunction="J3" end="540" vehsPerHour="14.270607074684095"/>
  <flow id="JF34560" begin="480" fromJunction="J0" toJunction="J4" end="540" vehsPerHour="69.58320448295778"/>
  <flow id="JF34561" begin="480" fromJunction="J2" toJunction="J3" end="540" vehsPerHour="2.3081623939971183"/>
  <flow id="JF34562" begin="480" fromJunction="J2" toJunction="J4" end="540" vehsPerHour="99.0499655698566"/>
  <flow id="JF34563" begin="480" fromJunction="J3" toJunction="J2" end="540" vehsPerHour="19.56470262597982"/>
  <flow id="JF34564" begin="480" fromJunction="J4" toJunction="J0" end="540" vehsPerHour="27.787607388741826"/>
  <flow id="JF34565" begin="480" fromJunction="J4" toJunction="J3" end="540" vehsPerHour="68.39364356113153"/>
  <flow id="JF34566" begin="540" fromJunction="J0" toJunction="J2" end="600" vehsPerHour="17.52608518691572"/>
  <flow id="JF34567" begin="540" fromJunction="J0" toJunction="J4" end="600" vehsPerHour="55.76278887429978"/>
  <flow id="JF34568" begin="540" fromJunction="J2" toJunction="J3" end="600" vehsPerHour="67.82786978046927"/>
  <flow id="JF34569" begin="540" fromJunction="J3" toJunction="J2" end="600" vehsPerHour="6.4619878504030535"/>
  <flow id="JF34570" begin="540" fromJunction="J3" toJunction="J4" end="600" vehsPerHour="42.082060265452576"/>
  <flow id="JF34571" begin="540" fromJunction="J4" toJunction="J2" end="600" vehsPerHour="102.07945431975136"/>
  <flow id="JF34572" begin="540" fromJunction="J4" toJunction="J3" end="600" vehsPerHour="101.9683220315331"/>
  <flow id="JF34573" begin="600" fromJunction="J0" toJunction="J2" end="660" vehsPerHour="101.12065362192816"/>
  <flow id="JF34574" begin="600" fromJunction="J0" toJunction="J3" end="660" vehsPerHour="44.35236551346709"/>
  <flow id="JF34575" begin="600" fromJunction="J0" toJunction="J4" end="660" vehsPerHour="69.50111891532332"/>
  <flow id="JF34576" begin="600" fromJunction="J2" toJunction="J0" end="660" vehsPerHour="37.0184531246902"/>
  <flow id="JF34577" begin="600" fromJunction="J2" toJunction="J3" end="660" vehsPerHour="76.37424330265203"/>
  <flow id="JF34578" begin="600" fromJunction="J3" toJunction="J0" end="660" vehsPerHour="69.85534167669798"/>
  <flow id="JF34579" begin="600" fromJunction="J4" toJunction="J0" end="660" vehsPerHour="51.45601620124198"/>
  <flow id="JF34580" begin="600" fromJunction="J4" toJunction="J3" end="660" vehsPerHour="22.57073184281494"/>
  <flow id="JF34581" begin="660" fromJunction="J0" toJunction="J2" end="720" vehsPerHour="94.20988024156422"/>
  <flow id="JF34582" begin="660" fromJunction="J0" toJunction="J3" end="720" vehsPerHour="135.6772168430348"/>
  <flow id="JF34583" begin="660" fromJunction="J0" toJunction="J4" end="720" vehsPerHour="108.55048361276809"/>
  <flow id="JF34584" begin="660" fromJunction="J2" toJunction="J0" end="720" vehsPerHour="83.88239614266855"/>
  <flow id="JF34585" begin="660" fromJunction="J2" toJunction="J3" end="720" vehsPerHour="7.7674215337485935"/>
  <flow id="JF34586" begin="660" fromJunction="J2" toJunction="J4" end="720" vehsPerHour="49.45936425005238"/>
  <flow id="JF34587" begin="660" fromJunction="J3" toJunction="J0" end="720" vehsPerHour="51.578861668155724"/>
  <flow id="JF34588" begin="660" fromJunction="J3" toJunction="J2" end="720" vehsPerHour="97.68065311452666"/>
  <flow id="JF34589" begin="660" fromJunction="J3" toJunction="J4" end="720" vehsPerHour="68.66682365147506"/>
  <flow id="JF34590" begin="660" fromJunction="J4" toJunction="J0" end="720" vehsPerHour="105.23474125081425"/>
  <flow id="JF34591" begin="720" fromJunction="J0" toJunction="J2" end="780" vehsPerHour="129.65622947256702"/>
  <flow id="JF34592" begin="720" fromJunction="J0" toJunction="J3" end="780" vehsPerHour="13.393652859160005"/>
  <flow id="JF34593" begin="720" fromJunction="J0" toJunction="J4" end="780" vehsPerHour="50.66051519834282"/>
  <flow id="JF34594" begin="720" fromJunction="J2" toJunction="J0" end="780" vehsPerHour="133.7479030796635"/>
  <flow id="JF34595" begin="720" fromJunction="J2" toJunction="J3" end="780" vehsPerHour="27.22871509502635"/>
  <flow id="JF34596" begin="720" fromJunction="J2" toJunction="J4" end="780" vehsPerHour="90.5600500181407"/>
  <flow id="JF34597" begin="720" fromJunction="J3" toJunction="J0" end="780" vehsPerHour="95.36297023834443"/>
  <flow id="JF34598" begin="720" fromJunction="J3" toJunction="J2" end="780" vehsPerHour="114.29219823456582"/>
  <flow id="JF34599" begin="720" fromJunction="J4" toJunction="J0" end="780" vehsPerHour="66.85236685738141"/>
  <flow id="JF34600" begin="720" fromJunction="J4" toJunction="J2" end="780" vehsPerHour="102.52296973522883"/>
  <flow id="JF34601" begin="780" fromJunction="J0" toJunction="J2" end="840" vehsPerHour="96.5482151219412"/>
  <flow id="JF34602" begin="780" fromJunction="J0" toJunction="J4" end="840" vehsPerHour="130.805031541126"/>
  <flow id="JF34603" begin="780" fromJunction="J2" toJunction="J0" end="840" vehsPerHour="132.22996245794934"/>
  <flow id="JF34604" begin="780" fromJunction="J2" toJunction="J3" end="840" vehsPerHour="56.77367882300628"/>
  <flow id="JF34605" begin="780" fromJunction="J3" toJunction="J2" end="840" vehsPerHour="113.18831456761994"/>
  <flow id="JF34606" begin="780" fromJunction="J3" toJunction="J4" end="840" vehsPerHour="47.1259133972084"/>
  <flow id="JF34607" begin="780" fromJunction="J4" toJunction="J3" end="840" vehsPerHour="104.66703285972268"/>
  <flow id="JF34608" begin="840" fromJunction="J0" toJunction="J3" end="900" vehsPerHour="117.47988876829379"/>
  <flow id="JF34609" begin="840" fromJunction="J2" toJunction="J0" end="900" vehsPerHour="81.07663326506314"/>
  <flow id="JF34610" begin="840" fromJunction="J2" toJunction="J4" end="900" vehsPerHour="130.53129065891028"/>
  <flow id="JF34611" begin="840" fromJunction="J3" toJunction="J2" end="900" vehsPerHour="118.24985640599604"/>
  <flow id="JF34612" begin="840" fromJunction="J4" toJunction="J0" end="900" vehsPerHour="29.971737165673666"/>
  <flow id="JF34613" begin="840" fromJunction="J4" toJunction="J2" end="900" vehsPerHour="54.95089303811979"/>
  <flow id="JF34614" begin="840" fromJunction="J4" toJunction="J3" end="900" vehsPerHour="43.18881689754335"/>
  <flow id="JF34615" begin="900" fromJunction="J0" toJunction="J3" end="960" vehsPerHour="106.46572282018006"/>
  <flow id="JF34616" begin="900" fromJunction="J0" toJunction="J4" end="960" vehsPerHour="27.923038417754874"/>
  <flow id="JF34617" begin="900" fromJunction="J2" toJunction="J0" end="960" vehsPerHour="76.7052377557868"/>
  <flow id="JF34618" begin="900" fromJunction="J2" toJunction="J4" end="960" vehsPerHour="2.1890476694090792"/>
  <flow id="JF34619" begin="900" fromJunction="J3" toJunction="J2" end="960" vehsPerHour="33.821045886622926"/>
  <flow id="JF34620" begin="900" fromJunction="J3" toJunction="J4" end="960" vehsPerHour="112.95962892434778"/>
  <flow id="JF34621" begin="900" fromJunction="J4" toJunction="J0" end="960" vehsPerHour="62.37845226358266"/>
  <flow id="JF34622" begin="900" fromJunction="J4" toJunction="J2" end="960" vehsPerHour="77.5787470030397"/>
  <flow id="JF34623" begin="960" fromJunction="J0" toJunction="J2" end="1020" vehsPerHour="81.65650972990974"/>
  <flow id="JF34624" begin="960" fromJunction="J0" toJunction="J3" end="1020" vehsPerHour="80.64753800035777"/>
  <flow id="JF34625" begin="960" fromJunction="J0" toJunction="J4" end="1020" vehsPerHour="59.319641564707794"/>
  <flow id="JF34626" begin="960" fromJunction="J2" toJunction="J4" end="1020" vehsPerHour="107.7210442373911"/>
  <flow id="JF34627" begin="960" fromJunction="J3" toJunction="J0" end="1020" vehsPerHour="46.987907720074915"/>
  <flow id="JF34628" begin="960" fromJunction="J3" toJunction="J2" end="1020" vehsPerHour="80.98193437792065"/>
  <flow id="JF34629" begin="960" fromJunction="J3" toJunction="J4" end="1020" vehsPerHour="6.014185751647615"/>
  <flow id="JF34630" begin="960" fromJunction="J4" toJunction="J0" end="1020" vehsPerHour="90.42701481344518"/>
  <flow id="JF34631" begin="960" fromJunction="J4" toJunction="J2" end="1020" vehsPerHour="33.41517032901761"/>
  <flow id="JF34632" begin="960" fromJunction="J4" toJunction="J3" end="1020" vehsPerHour="32.21719442299393"/>
  <flow id="JF34633" begin="1020" fromJunction="J0" toJunction="J2" end="1080" vehsPerHour="74.76143777152984"/>
  <flow id="JF34634" begin="1020" fromJunction="J2" toJunction="J4" end="1080" vehsPerHour="76.19527006741295"/>
  <flow id="JF34635" begin="1020" fromJunction="J3" toJunction="J0" end="1080" vehsPerHour="114.00732180454689"/>
  <flow id="JF34636" begin="1020" fromJunction="J3" toJunction="J2" end="1080" vehsPerHour="34.31936109309755"/>
  <flow id="JF34637" begin="1020" fromJunction="J3" toJunction="J4" end="1080" vehsPerHour="68.5871051889588"/>
  <flow id="JF34638" begin="1020" fromJunction="J4" toJunction="J0" end="1080" vehsPerHour="36.74911458029691"/>
  <flow id="JF34639" begin="1020" fromJunction="J4" toJunction="J2" end="1080" vehsPerHour="101.32547572345112"/>
  <flow id="JF34640" begin="1080" fromJunction="J0" toJunction="J3" end="1140" vehsPerHour="5.056761683972672"/>
  <flow id="JF34641" begin="1080" fromJunction="J2" toJunction="J0" end="1140" vehsPerHour="38.60399941305515"/>
  <flow id="JF34642" begin="1080" fromJunction="J2" toJunction="J3" end="1140" vehsPerHour="113.66900139504197"/>
  <flow id="JF34643" begin="1080" fromJunction="J2" toJunction="J4" end="1140" vehsPerHour="95.40689142691586"/>
  <flow id="JF34644" begin="1080" fromJunction="J3" toJunction="J0" end="1140" vehsPerHour="10.038024740669202"/>
  <flow id="JF34645" begin="1080" fromJunction="J3" toJunction="J2" end="1140" vehsPerHour="56.95382310116146"/>
  <flow id="JF34646" begin="1080" fromJunction="J4" toJunction="J0" end="1140" vehsPerHour="123.10116288908696"/>
  <flow id="JF34647" begin="1080" fromJunction="J4" toJunction="J2" end="1140" vehsPerHour="26.394159676447433"/>
  <flow id="JF34648" begin="1080" fromJunction="J4" toJunction="J3" end="1140" vehsPerHour="18.21713453921245"/>
  <flow id="JF34649" begin="1140" fromJunction="J0" toJunction="J2" end="1200" vehsPerHour="131.68454598579953"/>
  <flow id="JF34650" begin="1140" fromJunction="J0" toJunction="J3" end="1200" vehsPerHour="50.608768476626395"/>
  <flow id="JF34651" begin="1140" fromJunction="J2" toJunction="J0" end="1200" vehsPerHour="62.61606551962791"/>
  <flow id="JF34652" begin="1140" fromJunction="J2" toJunction="J4" end="1200" vehsPerHour="9.037402831310628"/>
  <flow id="JF34653" begin="1140" fromJunction="J3" toJunction="J0" end="1200" vehsPerHour="66.94920785505734"/>
  <flow id="JF34654" begin="1140" fromJunction="J3" toJunction="J2" end="1200" vehsPerHour="104.07749132610768"/>
  <flow id="JF34655" begin="1140" fromJunction="J4" toJunction="J0" end="1200" vehsPerHour="59.975484894694354"/>
  <flow id="JF34656" begin="1140" fromJunction="J4" toJunction="J3" end="1200" vehsPerHour="29.226748870228377"/>
  <flow id="JF34657" begin="1200" fromJunction="J0" toJunction="J2" end="1260" vehsPerHour="89.09323846721544"/>
  <flow id="JF34658" begin="1200" fromJunction="J0" toJunction="J3" end="1260" vehsPerHour="42.414238268442"/>
  <flow id="JF34659" begin="1200" fromJunction="J0" toJunction="J4" end="1260" vehsPerHour="101.76871906379299"/>
  <flow id="JF34660" begin="1200" fromJunction="J2" toJunction="J0" end="1260" vehsPerHour="43.89815056187024"/>
  <flow id="JF34661" begin="1200" fromJunction="J2" toJunction="J3" end="1260" vehsPerHour="62.76723866486338"/>
  <flow id="JF34662" begin="1200" fromJunction="J2" toJunction="J4" end="1260" vehsPerHour="71.90643665853821"/>
  <flow id="JF34663" begin="1200" fromJunction="J3" toJunction="J0" end="1260" vehsPerHour="9.816805662012372"/>
  <flow id="JF34664" begin="1200" fromJunction="J3" toJunction="J2" end="1260" vehsPerHour="74.40403283697319"/>
  <flow id="JF34665" begin="1200" fromJunction="J3" toJunction="J4" end="1260" vehsPerHour="121.37297649980499"/>
  <flow id="JF34666" begin="1200" fromJunction="J4" toJunction="J0" end="1260" vehsPerHour="100.14853963479797"/>
  <flow id="JF34667" begin="1200" fromJunction="J4" toJunction="J3" end="1260" vehsPerHour="106.38820544357066"/>
  <flow id="JF34668" begin="1260" fromJunction="J0" toJunction="J2" end="1320" vehsPerHour="120.33963954488226"/>
  <flow id="JF34669" begin="1260" fromJunction="J0" toJunction="J3" end="1320" vehsPerHour="26.847888060135382"/>
  <flow id="JF34670" begin="1260" fromJunction="J0" toJunction="J4" end="1320" vehsPerHour="44.375671216510526"/>
  <flow id="JF34671" begin="1260" fromJunction="J2" toJunction="J0" end="1320" vehsPerHour="69.62645696546954"/>
  <flow id="JF34672" begin="1260" fromJunction="J2" toJunction="J4" end="1320" vehsPerHour="117.2876994882564"/>
  <flow id="JF34673" begin="1260" fromJunction="J3" toJunction="J2" end="1320" vehsPerHour="51.31697662483099"/>
  <flow id="JF34674" begin="1260" fromJunction="J3" toJunction="J4" end="1320" vehsPerHour="4.000107335170943"/>
  <flow id="JF34675" begin="1260" fromJunction="J4" toJunction="J0" end="1320" vehsPerHour="5.066919297240128"/>
  <flow id="JF34676" begin="1320" fromJunction="J2" toJunction="J0" end="1380" vehsPerHour="10.359124430601273"/>
  <flow id="JF34677" begin="1320" fromJunction="J2" toJunction="J3" end="1380" vehsPerHour="63.29845716379089"/>
  <flow id="JF34678" begin="1320" fromJunction="J2" toJunction="J4" end="1380" vehsPerHour="96.32345224637031"/>
  <flow id="JF34679" begin="1320" fromJunction="J3" toJunction="J0" end="1380" vehsPerHour="61.79808908953427"/>
  <flow id="JF34680" begin="1320" fromJunction="J3" toJunction="J2" end="1380" vehsPerHour="63.49777080974677"/>
  <flow id="JF34681" begin="1320" fromJunction="J4" toJunction="J0" end="1380" vehsPerHour="100.18660870845632"/>
  <flow id="JF34682" begin="1320" fromJunction="J4" toJunction="J3" end="1380" vehsPerHour="118.52494978207902"/>
  <flow id="JF34683" begin="1380" fromJunction="J0" toJunction="J4" end="1440" vehsPerHour="135.5509601132403"/>
  <flow id="JF34684" begin="1380" fromJunction="J2" toJunction="J4" end="1440" vehsPerHour="116.7886822380782"/>
  <flow id="JF34685" begin="1380" fromJunction="J3" toJunction="J0" end="1440" vehsPerHour="43.45110395589521"/>
  <flow id="JF34686" begin="1380" fromJunction="J3" toJunction="J4" end="1440" vehsPerHour="134.499300105216"/>
  <flow id="JF34687" begin="1380" fromJunction="J4" toJunction="J0" end="1440" vehsPerHour="24.178136756030554"/>
  <flow id="JF34688" begin="1380" fromJunction="J4" toJunction="J2" end="1440" vehsPerHour="119.5495127888148"/>
  <flow id="JF34689" begin="1440" fromJunction="J0" toJunction="J2" end="1500" vehsPerHour="108.62426664135617"/>
  <flow id="JF34690" begin="1440" fromJunction="J0" toJunction="J4" end="1500" vehsPerHour="106.37406027794862"/>
  <flow id="JF34691" begin="1440" fromJunction="J2" toJunction="J0" end="1500" vehsPerHour="78.34142979731116"/>
  <flow id="JF34692" begin="1440" fromJunction="J2" toJunction="J3" end="1500" vehsPerHour="89.47388742148912"/>
  <flow id="JF34693" begin="1440" fromJunction="J3" toJunction="J2" end="1500" vehsPerHour="32.9522726986163"/>
  <flow id="JF34694" begin="1440" fromJunction="J3" toJunction="J4" end="1500" vehsPerHour="120.5793402947778"/>
  <flow id="JF34695" begin="1440" fromJunction="J4" toJunction="J0" end="1500" vehsPerHour="107.93345017624439"/>
  <flow id="JF34696" begin="1440" fromJunction="J4" toJunction="J2" end="1500" vehsPerHour="80.88057739129351"/>
  <flow id="JF34697" begin="1500" fromJunction="J2" toJunction="J0" end="1560" vehsPerHour="42.132696931823226"/>
  <flow id="JF34698" begin="1500" fromJunction="J2" toJunction="J3" end="1560" vehsPerHour="43.91852728765198"/>
  <flow id="JF34699" begin="1500" fromJunction="J2" toJunction="J4" end="1560" vehsPerHour="70.48156037815778"/>
  <flow id="JF34700" begin="1500" fromJunction="J3" toJunction="J0" end="1560" vehsPerHour="44.65423123125297"/>
  <flow id="JF34701" begin="1500" fromJunction="J4" toJunction="J0" end="1560" vehsPerHour="112.11406100357111"/>
  <flow id="JF34702" begin="1500" fromJunction="J4" toJunction="J2" end="1560" vehsPerHour="115.23950918713118"/>
  <flow id="JF34703" begin="1560" fromJunction="J0" toJunction="J2" end="1620" vehsPerHour="14.17467967437216"/>
  <flow id="JF34704" begin="1560" fromJunction="J2" toJunction="J0" end="1620" vehsPerHour="25.942671200768817"/>
  <flow id="JF34705" begin="1560" fromJunction="J2" toJunction="J4" end="1620" vehsPerHour="63.18197372952965"/>
  <flow id="JF34706" begin="1560" fromJunction="J3" toJunction="J0" end="1620" vehsPerHour="45.00009434129906"/>
  <flow id="JF34707" begin="1560" fromJunction="J3" toJunction="J2" end="1620" vehsPerHour="88.77203265908194"/>
  <flow id="JF34708" begin="1560" fromJunction="J3" toJunction="J4" end="1620" vehsPerHour="63.64200995131492"/>
  <flow id="JF34709" begin="1560" fromJunction="J4" toJunction="J0" end="1620" vehsPerHour="59.41459402873587"/>
  <flow id="JF34710" begin="1560" fromJunction="J4" toJunction="J2" end="1620" vehsPerHour="131.3800215174385"/>
  <flow id="JF34711" begin="1560" fromJunction="J4" toJunction="J3" end="1620" vehsPerHour="78.17953303829698"/>
  <flow id="JF34712" begin="1620" fromJunction="J0" toJunction="J2" end="1680" vehsPerHour="57.159211280143865"/>
  <flow id="JF34713" begin="1620" fromJunction="J2" toJunction="J0" end="1680" vehsPerHour="70.0053491225606"/>
  <flow id="JF34714" begin="1620" fromJunction="J2" toJunction="J3" end="1680" vehsPerHour="74.72295973479393"/>
  <flow id="JF34715" begin="1620" fromJunction="J2" toJunction="J4" end="1680" vehsPerHour="58.24554559211059"/>
  <flow id="JF34716" begin="1620" fromJunction="J3" toJunction="J0" end="1680" vehsPerHour="89.28956768641463"/>
  <flow id="JF34717" begin="1620" fromJunction="J3" toJunction="J2" end="1680" vehsPerHour="47.15155575700894"/>
  <flow id="JF34718" begin="1620" fromJunction="J3" toJunction="J4" end="1680" vehsPerHour="79.51830924770987"/>
  <flow id="JF34719" begin="1620" fromJunction="J4" toJunction="J0" end="1680" vehsPerHour="127.27348203692071"/>
  <flow id="JF34720" begin="1620" fromJunction="J4" toJunction="J3" end="1680" vehsPerHour="7.534903305623901"/>
  <flow id="JF34721" begin="1680" fromJunction="J0" toJunction="J2" end="1740" vehsPerHour="110.73266524407556"/>
  <flow id="JF34722" begin="1680" fromJunction="J0" toJunction="J4" end="1740" vehsPerHour="128.91674369845435"/>
  <flow id="JF34723" begin="1680" fromJunction="J2" toJunction="J0" end="1740" vehsPerHour="51.77535096730226"/>
  <flow id="JF34724" begin="1680" fromJunction="J2" toJunction="J4" end="1740" vehsPerHour="108.99766811251428"/>
  <flow id="JF34725" begin="1680" fromJunction="J3" toJunction="J2" end="1740" vehsPerHour="24.19249249371193"/>
  <flow id="JF34726" begin="1680" fromJunction="J3" toJunction="J4" end="1740" vehsPerHour="60.7169290842905"/>
  <flow id="JF34727" begin="1680" fromJunction="J4" toJunction="J2" end="1740" vehsPerHour="36.12855138055971"/>
  <flow id="JF34728" begin="1680" fromJunction="J4" toJunction="J3" end="1740" vehsPerHour="134.9769249816418"/>
  <flow id="JF34729" begin="1740" fromJunction="J0" toJunction="J2" end="1800" vehsPerHour="33.586664697622716"/>
  <flow id="JF34730" begin="1740" fromJunction="J0" toJunction="J4" end="1800" vehsPerHour="16.984671536721603"/>
  <flow id="JF34731" begin="1740" fromJunction="J2" toJunction="J0" end="1800" vehsPerHour="22.579994176364035"/>
  <flow id="JF34732" begin="1740" fromJunction="J2" toJunction="J3" end="1800" vehsPerHour="31.454900374353777"/>
  <flow id="JF34733" begin="1740" fromJunction="J2" toJunction="J4" end="1800" vehsPerHour="68.71626387093772"/>
  <flow id="JF34734" begin="1740" fromJunction="J3" toJunction="J0" end="1800" vehsPerHour="51.322084860453096"/>
  <flow id="JF34735" begin="1740" fromJunction="J3" toJunction="J2" end="1800" vehsPerHour="35.81369588731698"/>
  <flow id="JF34736" begin="1740" fromJunction="J3" toJunction="J4" end="1800" vehsPerHour="127.39617214785328"/>
  <flow id="JF34737" begin="1740" fromJunction="J4" toJunction="J3" end="1800" vehsPerHour="13.087275187585494"/>
  <flow id="JF34738" begin="1800" fromJunction="J0" toJunction="J3" end="1860" vehsPerHour="74.61826546467395"/>
  <flow id="JF34739" begin="1800" fromJunction="J0" toJunction="J4" end="1860" vehsPerHour="30.487205417987195"/>
  <flow id="JF34740" begin="1800" fromJunction="J2" toJunction="J3" end="1860" vehsPerHour="101.24636363255554"/>
  <flow id="JF34741" begin="1800" fromJunction="J2" toJunction="J4" end="1860" vehsPerHour="21.31970473715306"/>
  <flow id="JF34742" begin="1800" fromJunction="J3" toJunction="J0" end="1860" vehsPerHour="5.623547825801076"/>
  <flow id="JF34743" begin="1800" fromJunction="J3" toJunction="J2" end="1860" vehsPerHour="15.500649132798475"/>
  <flow id="JF34744" begin="1800" fromJunction="J3" toJunction="J4" end="1860" vehsPerHour="21.179682898448913"/>
  <flow id="JF34745" begin="1800" fromJunction="J4" toJunction="J0" end="1860" vehsPerHour="92.61846776848493"/>
  <flow id="JF34746" begin="1800" fromJunction="J4" toJunction="J2" end="1860" vehsPerHour="88.81869195609255"/>
  <flow id="JF34747" begin="1800" fromJunction="J4" toJunction="J3" end="1860" vehsPerHour="102.83036765730981"/>
  <flow id="JF34748" begin="1860" fromJunction="J0" toJunction="J3" end="1920" vehsPerHour="110.76686927791718"/>
  <flow id="JF34749" begin="1860" fromJunction="J0" toJunction="J4" end="1920" vehsPerHour="2.5341494088265977"/>
  <flow id="JF34750" begin="1860" fromJunction="J2" toJunction="J0" end="1920" vehsPerHour="123.23269675810802"/>
  <flow id="JF34751" begin="1860" fromJunction="J2" toJunction="J4" end="1920" vehsPerHour="82.98554111607073"/>
  <flow id="JF34752" begin="1860" fromJunction="J3" toJunction="J0" end="1920" vehsPerHour="117.00685486583944"/>