<?xml version="1.0" encoding="UTF-8"?>
<routes xmlns:xsi="http://www.w3.org/2001/XMLSchema-instance" xsi:noNamespaceSchemaLocation="http://sumo.dlr.de/xsd/routes_file.xsd">
  <flow id="JF36627" begin="0" fromJunction="J0" toJunction="J4" end="60" vehsPerHour="118.39741601037555"/>
  <flow id="JF36628" begin="0" fromJunction="J2" toJunction="J0" end="60" vehsPerHour="54.063242643481615"/>
  <flow id="JF36629" begin="0" fromJunction="J2" toJunction="J3" end="60" vehsPerHour="42.81291551885651"/>
  <flow id="JF36630" begin="0" fromJunction="J3" toJunction="J0" end="60" vehsPerHour="45.16149944705644"/>
  <flow id="JF36631" begin="0" fromJunction="J3" toJunction="J2" end="60" vehsPerHour="136.90645316277374"/>
  <flow id="JF36632" begin="0" fromJunction="J3" toJunction="J4" end="60" vehsPerHour="69.04598743988703"/>
  <flow id="JF36633" begin="0" fromJunction="J4" toJunction="J0" end="60" vehsPerHour="12.984911301280507"/>
  <flow id="JF36634" begin="0" fromJunction="J4" toJunction="J3" end="60" vehsPerHour="111.5458049869089"/>
  <flow id="JF36635" begin="60" fromJunction="J0" toJunction="J2" end="120" vehsPerHour="52.557468524036146"/>
  <flow id="JF36636" begin="60" fromJunction="J0" toJunction="J3" end="120" vehsPerHour="125.51403321503645"/>
  <flow id="JF36637" begin="60" fromJunction="J0" toJunction="J4" end="120" vehsPerHour="66.81146565965689"/>
  <flow id="JF36638" begin="60" fromJunction="J2" toJunction="J4" end="120" vehsPerHour="28.172056128961163"/>
  <flow id="JF36639" begin="60" fromJunction="J3" toJunction="J0" end="120" vehsPerHour="86.93820647889102"/>
  <flow id="JF36640" begin="60" fromJunction="J4" toJunction="J2" end="120" vehsPerHour="128.89441546878282"/>
  <flow id="JF36641" begin="60" fromJunction="J4" toJunction="J3" end="120" vehsPerHour="71.22319326700533"/>
  <flow id="JF36642" begin="120" fromJunction="J0" toJunction="J2" end="180" vehsPerHour="72.60203363541198"/>
  <flow id="JF36643" begin="120" fromJunction="J0" toJunction="J3" end="180" vehsPerHour="87.698960022133"/>
  <flow id="JF36644" begin="120" fromJunction="J2" toJunction="J0" end="180" vehsPerHour="102.42115195673584"/>
  <flow id="JF36645" begin="120" fromJunction="J2" toJunction="J4" end="180" vehsPerHour="136.86095897404542"/>
  <flow id="JF36646" begin="120" fromJunction="J3" toJunction="J0" end="180" vehsPerHour="46.048980412947316"/>
  <flow id="JF36647" begin="120" fromJunction="J3" toJunction="J2" end="180" vehsPerHour="112.60790464708568"/>
  <flow id="JF36648" begin="120" fromJunction="J3" toJunction="J4" end="180" vehsPerHour="36.49886904649296"/>
  <flow id="JF36649" begin="120" fromJunction="J4" toJunction="J0" end="180" vehsPerHour="119.79874190309668"/>
  <flow id="JF36650" begin="120" fromJunction="J4" toJunction="J2" end="180" vehsPerHour="103.70857299481821"/>
  <flow id="JF36651" begin="120" fromJunction="J4" toJunction="J3" end="180" vehsPerHour="0.16431192353389745"/>
  <flow id="JF36652" begin="180" fromJunction="J0" toJunction="J3" end="240" vehsPerHour="103.99084194504738"/>
  <flow id="JF36653" begin="180" fromJunction="J2" toJunction="J0" end="240" vehsPerHour="105.73203088205922"/>
  <flow id="JF36654" begin="180" fromJunction="J3" toJunction="J0" end="240" vehsPerHour="8.67678445779876"/>
  <flow id="JF36655" begin="180" fromJunction="J4" toJunction="J0" end="240" vehsPerHour="5.634140543185116"/>
  <flow id="JF36656" begin="180" fromJunction="J4" toJunction="J2" end="240" vehsPerHour="43.19545868948785"/>
  <flow id="JF36657" begin="180" fromJunction="J4" toJunction="J3" end="240" vehsPerHour="12.62014919275399"/>
  <flow id="JF36658" begin="240" fromJunction="J0" toJunction="J2" end="300" vehsPerHour="69.05429063667918"/>
  <flow id="JF36659" begin="240" fromJunction="J0" toJunction="J3" end="300" vehsPerHour="109.3338466725385"/>
  <flow id="JF36660" begin="240" fromJunction="J2" toJunction="J0" end="300" vehsPerHour="53.30154082383544"/>
  <flow id="JF36661" begin="240" fromJunction="J2" toJunction="J3" end="300" vehsPerHour="79.93958996519454"/>
  <flow id="JF36662" begin="240" fromJunction="J3" toJunction="J0" end="300" vehsPerHour="57.87689917938552"/>
  <flow id="JF36663" begin="240" fromJunction="J3" toJunction="J4" end="300" vehsPerHour="15.670375656575793"/>
  <flow id="JF36664" begin="240" fromJunction="J4" toJunction="J0" end="300" vehsPerHour="135.88100767791957"/>
  <flow id="JF36665" begin="240" fromJunction="J4" toJunction="J2" end="300" vehsPerHour="58.466670707806635"/>
  <flow id="JF36666" begin="240" fromJunction="J4" toJunction="J3" end="300" vehsPerHour="34.592703442503975"/>
  <flow id="JF36667" begin="300" fromJunction="J0" toJunction="J2" end="360" vehsPerHour="24.919089130857657"/>
  <flow id="JF36668" begin="300" fromJunction="J0" toJunction="J4" end="360" vehsPerHour="128.48832319491808"/>
  <flow id="JF36669" begin="300" fromJunction="J2" toJunction="J0" end="360" vehsPerHour="101.56576815555111"/>
  <flow id="JF36670" begin="300" fromJunction="J2" toJunction="J3" end="360" vehsPerHour="16.509290489786334"/>
  <flow id="JF36671" begin="300" fromJunction="J2" toJunction="J4" end="360" vehsPerHour="124.12663815460876"/>
  <flow id="JF36672" begin="300" fromJunction="J3" toJunction="J0" end="360" vehsPerHour="71.36641205966177"/>
  <flow id="JF36673" begin="300" fromJunction="J4" toJunction="J2" end="360" vehsPerHour="25.449561835756754"/>
  <flow id="JF36674" begin="360" fromJunction="J0" toJunction="J2" end="420" vehsPerHour="59.609870014830044"/>
  <flow id="JF36675" begin="360" fromJunction="J0" toJunction="J4" end="420" vehsPerHour="100.58260483638"/>
  <flow id="JF36676" begin="360" fromJunction="J2" toJunction="J0" end="420" vehsPerHour="91.24319604857334"/>
  <flow id="JF36677" begin="360" fromJunction="J2" toJunction="J4" end="420" vehsPerHour="114.17764346465135"/>
  <flow id="JF36678" begin="360" fromJunction="J3" toJunction="J4" end="420" vehsPerHour="60.51760804169579"/>
  <flow id="JF36679" begin="360" fromJunction="J4" toJunction="J2" end="420" vehsPerHour="78.7033129620412"/>
  <flow id="JF36680" begin="360" fromJunction="J4" toJunction="J3" end="420" vehsPerHour="125.45417236762724"/>
  <flow id="JF36681" begin="420" fromJunction="J0" toJunction="J2" end="480" vehsPerHour="1.2908754553783588"/>
  <flow id="JF36682" begin="420" fromJunction="J0" toJunction="J3" end="480" vehsPerHour="128.8597655761836"/>
  <flow id="JF36683" begin="420" fromJunction="J0" toJunction="J4" end="480" vehsPerHour="23.007231540345188"/>
  <flow id="JF36684" begin="420" fromJunction="J2" toJunction="J3" end="480" vehsPerHour="121.46930960863236"/>
  <flow id="JF36685" begin="420" fromJunction="J2" toJunction="J4" end="480" vehsPerHour="12.92046672619836"/>
  <flow id="JF36686" begin="420" fromJunction="J3" toJunction="J4" end="480" vehsPerHour="133.38717124053795"/>
  <flow id="JF36687" begin="420" fromJunction="J4" toJunction="J0" end="480" vehsPerHour="50.06025784823229"/>
  <flow id="JF36688" begin="420" fromJunction="J4" toJunction="J2" end="480" vehsPerHour="54.826441723763"/>
  <flow id="JF36689" begin="420" fromJunction="J4" toJunction="J3" end="480" vehsPerHour="22.05776128697553"/>
  <flow id="JF36690" begin="480" fromJunction="J0" toJunction="J2" end="540" vehsPerHour="136.0123349163077"/>
  <flow id="JF36691" begin="480" fromJunction="J0" toJunction="J3" end="540" vehsPerHour="86.2415268630877"/>
  <flow id="JF36692" begin="480" fromJunction="J0" toJunction="J4" end="540" vehsPerHour="106.26965282904621"/>
  <flow id="JF36693" begin="480" fromJunction="J2" toJunction="J3" end="540" vehsPerHour="53.432113644631855"/>
  <flow id="JF36694" begin="480" fromJunction="J2" toJunction="J4" end="540" vehsPerHour="80.01625889921813"/>
  <flow id="JF36695" begin="480" fromJunction="J3" toJunction="J0" end="540" vehsPerHour="95.72146411562231"/>
  <flow id="JF36696" begin="480" fromJunction="J3" toJunction="J2" end="540" vehsPerHour="109.13008181178161"/>
  <flow id="JF36697" begin="480" fromJunction="J3" toJunction="J4" end="540" vehsPerHour="65.77840238492314"/>
  <flow id="JF36698" begin="480" fromJunction="J4" toJunction="J0" end="540" vehsPerHour="127.73533544120588"/>
  <flow id="JF36699" begin="480" fromJunction="J4" toJunction="J2" end="540" vehsPerHour="92.317156323845"/>
  <flow id="JF36700" begin="480" fromJunction="J4" toJunction="J3" end="540" vehsPerHour="137.26437371361055"/>
  <flow id="JF36701" begin="540" fromJunction="J0" toJunction="J4" end="600" vehsPerHour="5.887819612771553"/>
  <flow id="JF36702" begin="540" fromJunction="J2" toJunction="J0" end="600" vehsPerHour="130.64707668289412"/>
  <flow id="JF36703" begin="540" fromJunction="J2" toJunction="J3" end="600" vehsPerHour="43.66791410059445"/>
  <flow id="JF36704" begin="540" fromJunction="J3" toJunction="J4" end="600" vehsPerHour="2.6876121627679512"/>
  <flow id="JF36705" begin="540" fromJunction="J4" toJunction="J0" end="600" vehsPerHour="57.37612237307489"/>
  <flow id="JF36706" begin="540" fromJunction="J4" toJunction="J2" end="600" vehsPerHour="105.57788042661214"/>
  <flow id="JF36707" begin="540" fromJunction="J4" toJunction="J3" end="600" vehsPerHour="6.665810649983159"/>
  <flow id="JF36708" begin="600" fromJunction="J0" toJunction="J3" end="660" vehsPerHour="135.06972954656183"/>
  <flow id="JF36709" begin="600" fromJunction="J0" toJunction="J4" end="660" vehsPerHour="3.3633602605720383"/>
  <flow id="JF36710" begin="600" fromJunction="J2" toJunction="J0" end="660" vehsPerHour="39.41013991589404"/>
  <flow id="JF36711" begin="600" fromJunction="J2" toJunction="J3" end="660" vehsPerHour="129.72203399832588"/>
  <flow id="JF36712" begin="600" fromJunction="J3" toJunction="J2" end="660" vehsPerHour="89.80095390094456"/>
  <flow id="JF36713" begin="600" fromJunction="J3" toJunction="J4" end="660" vehsPerHour="111.68611812476637"/>
  <flow id="JF36714" begin="600" fromJunction="J4" toJunction="J0" end="660" vehsPerHour="0.37335835868340955"/>
  <flow id="JF36715" begin="600" fromJunction="J4" toJunction="J2" end="660" vehsPerHour="11.49245618656285"/>
  <flow id="JF36716" begin="660" fromJunction="J0" toJunction="J3" end="720" vehsPerHour="34.74896738617567"/>
  <flow id="JF36717" begin="660" fromJunction="J2" toJunction="J0" end="720" vehsPerHour="43.256454651324404"/>
  <flow id="JF36718" begin="660" fromJunction="J2" toJunction="J4" end="720" vehsPerHour="13.386928917901585"/>
  <flow id="JF36719" begin="660" fromJunction="J3" toJunction="J4" end="720" vehsPerHour="10.532166126839767"/>
  <flow id="JF36720" begin="660" fromJunction="J4" toJunction="J0" end="720" vehsPerHour="66.34066218476643"/>
  <flow id="JF36721" begin="660" fromJunction="J4" toJunction="J3" end="720" vehsPerHour="11.340348589453658"/>
  <flow id="JF36722" begin="720" fromJunction="J0" toJunction="J2" end="780" vehsPerHour="132.28620238849575"/>
  <flow id="JF36723" begin="720" fromJunction="J0" toJunction="J4" end="780" vehsPerHour="128.22261198195028"/>
  <flow id="JF36724" begin="720" fromJunction="J2" toJunction="J3" end="780" vehsPerHour="118.5385458706564"/>
  <flow id="JF36725" begin="720" fromJunction="J3" toJunction="J0" end="780" vehsPerHour="7.05717896065497"/>
  <flow id="JF36726" begin="720" fromJunction="J3" toJunction="J2" end="780" vehsPerHour="80.99572832609454"/>
  <flow id="JF36727" begin="720" fromJunction="J3" toJunction="J4" end="780" vehsPerHour="86.03880977010672"/>
  <flow id="JF36728" begin="720" fromJunction="J4" toJunction="J0" end="780" vehsPerHour="30.313098541344438"/>
  <flow id="JF36729" begin="720" fromJunction="J4" toJunction="J3" end="780" vehsPerHour="42.23146527791892"/>
  <flow id="JF36730" begin="780" fromJunction="J0" toJunction="J2" end="840" vehsPerHour="21.92334409908678"/>
  <flow id="JF36731" begin="780" fromJunction="J0" toJunction="J3" end="840" vehsPerHour="21.25856882549219"/>
  <flow id="JF36732" begin="780" fromJunction="J0" toJunction="J4" end="840" vehsPerHour="14.719197785004003"/>
  <flow id="JF36733" begin="780" fromJunction="J2" toJunction="J0" end="840" vehsPerHour="101.52724987854519"/>
  <flow id="JF36734" begin="780" fromJunction="J2" toJunction="J4" end="840" vehsPerHour="39.86246866419695"/>
  <flow id="JF36735" begin="780" fromJunction="J3" toJunction="J2" end="840" vehsPerHour="35.817565336032686"/>
  <flow id="JF36736" begin="780" fromJunction="J3" toJunction="J4" end="840" vehsPerHour="50.92393963406233"/>
  <flow id="JF36737" begin="780" fromJunction="J4" toJunction="J2" end="840" vehsPerHour="92.51536278697388"/>
  <flow id="JF36738" begin="840" fromJunction="J0" toJunction="J2" end="900" vehsPerHour="118.87393908170515"/>
  <flow id="JF36739" begin="840" fromJunction="J0" toJunction="J3" end="900" vehsPerHour="5.289871228463687"/>
  <flow id="JF36740" begin="840" fromJunction="J2" toJunction="J0" end="900" vehsPerHour="29.335960975276784"/>
  <flow id="JF36741" begin="840" fromJunction="J2" toJunction="J3" end="900" vehsPerHour="21.786566067483307"/>
  <flow id="JF36742" begin="840" fromJunction="J2" toJunction="J4" end="900" vehsPerHour="84.31661901938458"/>
  <flow id="JF36743" begin="840" fromJunction="J3" toJunction="J0" end="900" vehsPerHour="18.83374433721462"/>
  <flow id="JF36744" begin="840" fromJunction="J3" toJunction="J2" end="900" vehsPerHour="48.59564474434892"/>
  <flow id="JF36745" begin="840" fromJunction="J4" toJunction="J0" end="900" vehsPerHour="85.07380464714915"/>
  <flow id="JF36746" begin="840" fromJunction="J4" toJunction="J2" end="900" vehsPerHour="10.011907001748284"/>
  <flow id="JF36747" begin="840" fromJunction="J4" toJunction="J3" end="900" vehsPerHour="125.93472038077681"/>
  <flow id="JF36748" begin="900" fromJunction="J0" toJunction="J2" end="960" vehsPerHour="7.606262319803529"/>
  <flow id="JF36749" begin="900" fromJunction="J0" toJunction="J3" end="960" vehsPerHour="110.7937025383318"/>
  <flow id="JF36750" begin="900" fromJunction="J0" toJunction="J4" end="960" vehsPerHour="33.600421789922876"/>
  <flow id="JF36751" begin="900" fromJunction="J2" toJunction="J0" end="960" vehsPerHour="129.73520590410214"/>
  <flow id="JF36752" begin="900" fromJunction="J2" toJunction="J3" end="960" vehsPerHour="105.69563465849176"/>
  <flow id="JF36753" begin="900" fromJunction="J2" toJunction="J4" end="960" vehsPerHour="101.88124115047732"/>
  <flow id="JF36754" begin="900" fromJunction="J3" toJunction="J0" end="960" vehsPerHour="101.97785543684901"/>
  <flow id="JF36755" begin="900" fromJunction="J3" toJunction="J2" end="960" vehsPerHour="30.759583522780215"/>
  <flow id="JF36756" begin="900" fromJunction="J4" toJunction="J0" end="960" vehsPerHour="106.48250012988579"/>
  <flow id="JF36757" begin="900" fromJunction="J4" toJunction="J3" end="960" vehsPerHour="2.7852817055534476"/>
  <flow id="JF36758" begin="960" fromJunction="J0" toJunction="J2" end="1020" vehsPerHour="112.88154679272516"/>
  <flow id="JF36759" begin="960" fromJunction="J0" toJunction="J3" end="1020" vehsPerHour="33.163439045080196"/>
  <flow id="JF36760" begin="960" fromJunction="J0" toJunction="J4" end="1020" vehsPerHour="124.10380715857148"/>
  <flow id="JF36761" begin="960" fromJunction="J2" toJunction="J0" end="1020" vehsPerHour="77.91044032713991"/>
  <flow id="JF36762" begin="960" fromJunction="J2" toJunction="J3" end="1020" vehsPerHour="75.34569398224696"/>
  <flow id="JF36763" begin="960" fromJunction="J2" toJunction="J4" end="1020" vehsPerHour="121.64977515720494"/>
  <flow id="JF36764" begin="960" fromJunction="J3" toJunction="J2" end="1020" vehsPerHour="108.1022622139039"/>
  <flow id="JF36765" begin="960" fromJunction="J3" toJunction="J4" end="1020" vehsPerHour="118.7704863729485"/>
  <flow id="JF36766" begin="960" fromJunction="J4" toJunction="J0" end="1020" vehsPerHour="103.0265587310191"/>
  <flow id="JF36767" begin="960" fromJunction="J4" toJunction="J3" end="1020" vehsPerHour="125.07160736570212"/>
  <flow id="JF36768" begin="1020" fromJunction="J0" toJunction="J2" end="1080" vehsPerHour="135.79234543370018"/>
  <flow id="JF36769" begin="1020" fromJunction="J0" toJunction="J3" end="1080" vehsPerHour="115.14770933074031"/>
  <flow id="JF36770" begin="1020" fromJunction="J0" toJunction="J4" end="1080" vehsPerHour="26.370096547624197"/>
  <flow id="JF36771" begin="1020" fromJunction="J2" toJunction="J0" end="1080" vehsPerHour="30.24198623826893"/>
  <flow id="JF36772" begin="1020" fromJunction="J2" toJunction="J3" end="1080" vehsPerHour="35.65386573673009"/>
  <flow id="JF36773" begin="1020" fromJunction="J2" toJunction="J4" end="1080" vehsPerHour="11.959160883429616"/>
  <flow id="JF36774" begin="1020" fromJunction="J3" toJunction="J4" end="1080" vehsPerHour="122.63204104814312"/>
  <flow id="JF36775" begin="1020" fromJunction="J4" toJunction="J0" end="1080" vehsPerHour="123.18353412898306"/>
  <flow id="JF36776" begin="1080" fromJunction="J0" toJunction="J4" end="1140" vehsPerHour="102.17438470028512"/>
  <flow id="JF36777" begin="1080" fromJunction="J2" toJunction="J0" end="1140" vehsPerHour="1.5980843123789892"/>
  <flow id="JF36778" begin="1080" fromJunction="J2" toJunction="J3" end="1140" vehsPerHour="33.803741098614225"/>
  <flow id="JF36779" begin="1080" fromJunction="J2" toJunction="J4" end="1140" vehsPerHour="20.342889799050035"/>
  <flow id="JF36780" begin="1080" fromJunction="J3" toJunction="J0" end="1140" vehsPerHour="37.33726685025723"/>
  <flow id="JF36781" begin="1080" fromJunction="J3" toJunction="J2" end="1140" vehsPerHour="113.7413944222183"/>
  <flow id="JF36782" begin="1080" fromJunction="J4" toJunction="J0" end="1140" vehsPerHour="44.429686331495645"/>
  <flow id="JF36783" begin="1080" fromJunction="J4" toJunction="J3" end="1140" vehsPerHour="72.36864330822075"/>
  <flow id="JF36784" begin="1140" fromJunction="J0" toJunction="J2" end="1200" vehsPerHour="38.899435675175965"/>
  <flow id="JF36785" begin="1140" fromJunction="J0" toJunction="J3" end="1200" vehsPerHour="17.468347471902078"/>
  <flow id="JF36786" begin="1140" fromJunction="J0" toJunction="J4" end="1200" vehsPerHour="70.0107876641165"/>
  <flow id="JF36787" begin="1140" fromJunction="J2" toJunction="J3" end="1200" vehsPerHour="25.063720794597124"/>
  <flow id="JF36788" begin="1140" fromJunction="J2" toJunction="J4" end="1200" vehsPerHour="59.00166272446135"/>
  <flow id="JF36789" begin="1140" fromJunction="J3" toJunction="J0" end="1200" vehsPerHour="125.2008035028788"/>
  <flow id="JF36790" begin="1140" fromJunction="J3" toJunction="J2" end="1200" vehsPerHour="136.2127268392395"/>
  <flow id="JF36791" begin="1140" fromJunction="J4" toJunction="J0" end="1200" vehsPerHour="5.8707805206184105"/>
  <flow id="JF36792" begin="1140" fromJunction="J4" toJunction="J2" end="1200" vehsPerHour="109.67695381878373"/>
  <flow id="JF36793" begin="1140" fromJunction="J4" toJunction="J3" end="1200" vehsPerHour="113.27314859447617"/>
  <flow id="JF36794" begin="1200" fromJunction="J0" toJunction="J4" end="1260" vehsPerHour="56.27269263873006"/>
  <flow id="JF36795" begin="1200" fromJunction="J2" toJunction="J3" end="1260" vehsPerHour="50.048060775165865"/>
  <flow id="JF36796" begin="1200" fromJunction="J2" toJunction="J4" end="1260" vehsPerHour="135.24578685213248"/>
  <flow id="JF36797" begin="1200" fromJunction="J3" toJunction="J0" end="1260" vehsPerHour="124.02191068244555"/>
  <flow id="JF36798" begin="1200" fromJunction="J3" toJunction="J2" end="1260" vehsPerHour="29.40692933977734"/>
  <flow id="JF36799" begin="1200" fromJunction="J3" toJunction="J4" end="1260" vehsPerHour="83.420162783017"/>
  <flow id="JF36800" begin="1200" fromJunction="J4" toJunction="J2" end="1260" vehsPerHour="26.112427699450635"/>
  <flow id="JF36801" begin="1200" fromJunction="J4" toJunction="J3" end="1260" vehsPerHour="80.91590438651365"/>
  <flow id="JF36802" begin="1260" fromJunction="J0" toJunction="J3" end="1320" vehsPerHour="124.41437245592068"/>
  <flow id="JF36803" begin="1260" fromJunction="J2" toJunction="J0" end="1320" vehsPerHour="2.0961107439470616"/>
  <flow id="JF36804" begin="1260" fromJunction="J2" toJunction="J4" end="1320" vehsPerHour="81.87790979767081"/>
  <flow id="JF36805" begin="1260" fromJunction="J3" toJunction="J0" end="1320" vehsPerHour="18.705091139374634"/>
  <flow id="JF36806" begin="1260" fromJunction="J3" toJunction="J2" end="1320" vehsPerHour="127.41148740467425"/>
  <flow id="JF36807" begin="1260" fromJunction="J4" toJunction="J2" end="1320" vehsPerHour="75.96292576807119"/>
  <flow id="JF36808" begin="1320" fromJunction="J0" toJunction="J3" end="1380" vehsPerHour="72.28321006011492"/>
  <flow id="JF36809" begin="1320" fromJunction="J0" toJunction="J4" end="1380" vehsPerHour="128.65454412227788"/>
  <flow id="JF36810" begin="1320" fromJunction="J2" toJunction="J3" end="1380" vehsPerHour="31.270639805953046"/>
  <flow id="JF36811" begin="1320" fromJunction="J2" toJunction="J4" end="1380" vehsPerHour="80.94418365620714"/>
  <flow id="JF36812" begin="1320" fromJunction="J3" toJunction="J0" end="1380" vehsPerHour="122.20477599406877"/>
  <flow id="JF36813" begin="1320" fromJunction="J4" toJunction="J0" end="1380" vehsPerHour="100.78224461239718"/>
  <flow id="JF36814" begin="1320" fromJunction="J4" toJunction="J2" end="1380" vehsPerHour="111.84455664344743"/>
  <flow id="JF36815" begin="1380" fromJunction="J0" toJunction="J2" end="1440" vehsPerHour="6.492413719700815"/>
  <flow id="JF36816" begin="1380" fromJunction="J0" toJunction="J3" end="1440" vehsPerHour="8.201357921607661"/>
  <flow id="JF36817" begin="1380" fromJunction="J0" toJunction="J4" end="1440" vehsPerHour="120.27125200908084"/>
  <flow id="JF36818" begin="1380" fromJunction="J2" toJunction="J0" end="1440" vehsPerHour="4.280369084906386"/>
  <flow id="JF36819" begin="1380" fromJunction="J2" toJunction="J4" end="1440" vehsPerHour="114.97658005306008"/>
  <flow id="JF36820" begin="1380" fromJunction="J3" toJunction="J2" end="1440" vehsPerHour="83.51361251048841"/>
  <flow id="JF36821" begin="1380" fromJunction="J3" toJunction="J4" end="1440" vehsPerHour="96.62420474024873"/>
  <flow id="JF36822" begin="1380" fromJunction="J4" toJunction="J0" end="1440" vehsPerHour="103.51482482818702"/>
  <flow id="JF36823" begin="1380" fromJunction="J4" toJunction="J3" end="1440" vehsPerHour="88.55566390529219"/>
  <flow id="JF36824" begin="1440" fromJunction="J0" toJunction="J3" end="1500" vehsPerHour="8.198163021997956"/>
  <flow id="JF36825" begin="1440" fromJunction="J0" toJunction="J4" end="1500" vehsPerHour="24.99789062972396"/>
  <flow id="JF36826" begin="1440" fromJunction="J2" toJunction="J0" end="1500" vehsPerHour="8.065145035824623"/>
  <flow id="JF36827" begin="1440" fromJunction="J2" toJunction="J3" end="1500" vehsPerHour="98.19563861217557"/>
  <flow id="JF36828" begin="1440" fromJunction="J4" toJunction="J0" end="1500" vehsPerHour="72.26936764983155"/>
  <flow id="JF36829" begin="1440" fromJunction="J4" toJunction="J2" end="1500" vehsPerHour="63.068537135797456"/>
  <flow id="JF36830" begin="1500" fromJunction="J0" toJunction="J2" end="1560" vehsPerHour="26.103007971536393"/>
  <flow id="JF36831" begin="1500" fromJunction="J0" toJunction="J3" end="1560" vehsPerHour="3.470896210252911"/>
  <flow id="JF36832" begin="1500" fromJunction="J0" toJunction="J4" end="1560" vehsPerHour="64.04190265418198"/>
  <flow id="JF36833" begin="1500" fromJunction="J2" toJunction="J0" end="1560" vehsPerHour="127.09395388462411"/>
  <flow id="JF36834" begin="1500" fromJunction="J2" toJunction="J3" end="1560" vehsPerHour="94.88415266626208"/>
  <flow id="JF36835" begin="1500" fromJunction="J2" toJunction="J4" end="1560" vehsPerHour="45.02834307858502"/>
  <flow id="JF36836" begin="1500" fromJunction="J3" toJunction="J0" end="1560" vehsPerHour="130.62385663972375"/>
  <flow id="JF36837" begin="1500" fromJunction="J3" toJunction="J2" end="1560" vehsPerHour="27.930208680674127"/>
  <flow id="JF36838" begin="1500" fromJunction="J4" toJunction="J0" end="1560" vehsPerHour="134.58264776912264"/>
  <flow id="JF36839" begin="1500" fromJunction="J4" toJunction="J3" end="1560" vehsPerHour="34.637237553626214"/>
  <flow id="JF36840" begin="1560" fromJunction="J0" toJunction="J3" end="1620" vehsPerHour="95.1811821082849"/>
  <flow id="JF36841" begin="1560" fromJunction="J0" toJunction="J4" end="1620" vehsPerHour="69.49573694915091"/>
  <flow id="JF36842" begin="1560" fromJunction="J2" toJunction="J0" end="1620" vehsPerHour="89.05748387868941"/>
  <flow id="JF36843" begin="1560" fromJunction="J2" toJunction="J4" end="1620" vehsPerHour="87.47342410756873"/>
  <flow id="JF36844" begin="1560" fromJunction="J3" toJunction="J0" end="1620" vehsPerHour="23.382639824964084"/>
  <flow id="JF36845" begin="1560" fromJunction="J3" toJunction="J4" end="1620" vehsPerHour="50.2473135174205"/>
  <flow id="JF36846" begin="1560" fromJunction="J4" toJunction="J0" end="1620" vehsPerHour="46.76418541677543"/>
  <flow id="JF36847" begin="1560" fromJunction="J4" toJunction="J2" end="1620" vehsPerHour="39.50826902236876"/>
  <flow id="JF36848" begin="1560" fromJunction="J4" toJunction="J3" end="1620" vehsPerHour="134.24529649325913"/>
  <flow id="JF36849" begin="1620" fromJunction="J0" toJunction="J2" end="1680" vehsPerHour="110.95295951365618"/>
  <flow id="JF36850" begin="1620" fromJunction="J0" toJunction="J3" end="1680" vehsPerHour="107.81501762585341"/>
  <flow id="JF36851" begin="1620" fromJunction="J0" toJunction="J4" end="1680" vehsPerHour="90.74582120050361"/>
  <flow id="JF36852" begin="1620" fromJunction="J2" toJunction="J0" end="1680" vehsPerHour="102.64077771041207"/>
  <flow id="JF36853" begin="1620" fromJunction="J2" toJunction="J3" end="1680" vehsPerHour="110.16543310789356"/>
  <flow id="JF36854" begin="1620" fromJunction="J2" toJunction="J4" end="1680" vehsPerHour="79.93937904959984"/>
  <flow id="JF36855" begin="1620" fromJunction="J3" toJunction="J0" end="1680" vehsPerHour="118.65220536182395"/>
  <flow id="JF36856" begin="1620" fromJunction="J4" toJunction="J0" end="1680" vehsPerHour="111.62634298833163"/>
  <flow id="JF36857" begin="1620" fromJunction="J4" toJunction="J3" end="1680" vehsPerHour="14.542083137430202"/>
  <flow id="JF36858" begin="1680" fromJunction="J0" toJunction="J2" end="1740" vehsPerHour="35.987042581975494"/>
  <flow id="JF36859" begin="1680" fromJunction="J0" toJunction="J3" end="1740" vehsPerHour="19.342585877224174"/>
  <flow id="JF36860" begin="1680" fromJunction="J2" toJunction="J3" end="1740" vehsPerHour="55.57753822461711"/>
  <flow id="JF36861" begin="1680" fromJunction="J2" toJunction="J4" end="1740" vehsPerHour="104.5446101152735"/>
  <flow id="JF36862" begin="1680" fromJunction="J3" toJunction="J0" end="1740" vehsPerHour="32.35024068933734"/>
  <flow id="JF36863" begin="1680" fromJunction="J3" toJunction="J2" end="1740" vehsPerHour="90.64843919196369"/>
  <flow id="JF36864" begin="1680" fromJunction="J3" toJunction="J4" end="1740" vehsPerHour="117.58836736996949"/>
  <flow id="JF36865" begin="1680" fromJunction="J4" toJunction="J0" end="1740" vehsPerHour="24.586575292944694"/>
  <flow id="JF36866" begin="1740" fromJunction="J0" toJunction="J3" end="1800" vehsPerHour="92.34567212587932"/>
  <flow id="JF36867" begin="1740" fromJunction="J0" toJunction="J4" end="1800" vehsPerHour="15.135646184602278"/>
  <flow id="JF36868" begin="1740" fromJunction="J2" toJunction="J0" end="1800" vehsPerHour="24.74171326641895"/>
  <flow id="JF36869" begin="1740" fromJunction="J2" toJunction="J3" end="1800" vehsPerHour="128.37484693062294"/>
  <flow id="JF36870" begin="1740" fromJunction="J2" toJunction="J4" end="1800" vehsPerHour="30.934791031557836"/>
  <flow id="JF36871" begin="1740" fromJunction="J3" toJunction="J2" end="1800" vehsPerHour="40.45286893588311"/>
  <flow id="JF36872" begin="1740" fromJunction="J4" toJunction="J0" end="1800" vehsPerHour="75.12156111576286"/>
  <flow id="JF36873" begin="1740" fromJunction="J4" toJunction="J2" end="1800" vehsPerHour="56.65979670064847"/>
  <flow id="JF36874" begin="1800" fromJunction="J0" toJunction="J2" end="1860" vehsPerHour="120.0265890488932"/>
  <flow id="JF36875" begin="1800" fromJunction="J0" toJunction="J3" end="1860" vehsPerHour="87.29061694182379"/>
  <flow id="JF36876" begin="1800" fromJunction="J2" toJunction="J0" end="1860" vehsPerHour="22.564273640746844"/>
  <flow id="JF36877" begin="1800" fromJunction="J2" toJunction="J4" end="1860" vehsPerHour="111.47772215939426"/>
  <flow id="JF36878" begin="1800" fromJunction="J3" toJunction="J0" end="1860" vehsPerHour="30.67955741628482"/>
  <flow id="JF36879" begin="1800" fromJunction="J3" toJunction="J2" end="1860" vehsPerHour="88.46706243786109"/>
  <flow id="JF36880" begin="1800" fromJunction="J3" toJunction="J4" end="1860" vehsPerHour="21.954421141664906"/>
  <flow id="JF36881" begin="1800" fromJunction="J4" toJunction="J2" end="1860" vehsPerHour="98.42965859365343"/>
  <flow id="JF36882" begin="1800" fromJunction="J4" toJunction="J3" end="1860" vehsPerHour="77.99698566492104"/>
  <flow id="JF36883" begin="1860" fromJunction="J0" toJunction="J2" end="1920" vehsPerHour="115.96988550353382"/>
  <flow id="JF36884" begin="1860" fromJunction="J0" toJunction="J3" end="1920" vehsPerHour="81.85181438484801"/>
  <flow id="JF36885" begin="1860" fromJunction="J0" toJunction="J4" end="1920" vehsPerHour="22.04523170125199"/>
  <flow id="JF36886" begin="1860" fromJunction="J2" toJunction="J4" end="1920" vehsPerHour="126.24398149250477"/>
  <flow id="JF36887" begin="1860" fromJunction="J3" toJunction="J0" end="1920" vehsPerHour="26.006960975262338"/>
  <flow id="JF36888" begin="1860" fromJunction="J3" toJunction="J2" end="1920" vehsPerHour="129.50630301609658"/>
  <flow id="JF36889" begin="1860" fromJunction="J3" toJunction="J4" end="1920" vehsPerHour="87.0225708759487"/>
  <flow id="JF36890" begin="1860" fromJunction="J4" toJunction="J0" end="1920" vehsPerHour="35.82391791829804"/>
  <flow id="JF36891" begin="1860" fromJunction="J4" toJunction="J3" end="1920" vehsPerHour="55.943471742010814"/>