<?xml version="1.0" encoding="UTF-8"?>
<routes xmlns:xsi="http://www.w3.org/2001/XMLSchema-instance" xsi:noNamespaceSchemaLocation="http://sumo.dlr.de/xsd/routes_file.xsd">
  <flow id="JF35913" begin="0" fromJunction="J0" toJunction="J2" end="60" vehsPerHour="51.62021228310623"/>
  <flow id="JF35914" begin="0" fromJunction="J0" toJunction="J3" end="60" vehsPerHour="115.44300217308466"/>
  <flow id="JF35915" begin="0" fromJunction="J0" toJunction="J4" end="60" vehsPerHour="13.661245993428972"/>
  <flow id="JF35916" begin="0" fromJunction="J2" toJunction="J0" end="60" vehsPerHour="95.67975698652846"/>
  <flow id="JF35917" begin="0" fromJunction="J2" toJunction="J3" end="60" vehsPerHour="101.26886321938547"/>
  <flow id="JF35918" begin="0" fromJunction="J2" toJunction="J4" end="60" vehsPerHour="73.78703272307018"/>
  <flow id="JF35919" begin="0" fromJunction="J3" toJunction="J0" end="60" vehsPerHour="49.90725976356588"/>
  <flow id="JF35920" begin="0" fromJunction="J3" toJunction="J4" end="60" vehsPerHour="47.37626002947278"/>
  <flow id="JF35921" begin="60" fromJunction="J0" toJunction="J2" end="120" vehsPerHour="33.200750606593346"/>
  <flow id="JF35922" begin="60" fromJunction="J0" toJunction="J3" end="120" vehsPerHour="59.19370002552152"/>
  <flow id="JF35923" begin="60" fromJunction="J0" toJunction="J4" end="120" vehsPerHour="78.24177139050919"/>
  <flow id="JF35924" begin="60" fromJunction="J3" toJunction="J0" end="120" vehsPerHour="123.48743421786665"/>
  <flow id="JF35925" begin="60" fromJunction="J3" toJunction="J4" end="120" vehsPerHour="75.46064001659474"/>
  <flow id="JF35926" begin="60" fromJunction="J4" toJunction="J3" end="120" vehsPerHour="22.180549118304793"/>
  <flow id="JF35927" begin="120" fromJunction="J0" toJunction="J3" end="180" vehsPerHour="53.40952101497702"/>
  <flow id="JF35928" begin="120" fromJunction="J0" toJunction="J4" end="180" vehsPerHour="53.63199718863808"/>
  <flow id="JF35929" begin="120" fromJunction="J2" toJunction="J3" end="180" vehsPerHour="34.71345191018312"/>
  <flow id="JF35930" begin="120" fromJunction="J2" toJunction="J4" end="180" vehsPerHour="29.67435278837447"/>
  <flow id="JF35931" begin="120" fromJunction="J3" toJunction="J0" end="180" vehsPerHour="20.08002056672136"/>
  <flow id="JF35932" begin="120" fromJunction="J3" toJunction="J2" end="180" vehsPerHour="80.22827449114077"/>
  <flow id="JF35933" begin="120" fromJunction="J3" toJunction="J4" end="180" vehsPerHour="134.14049174757628"/>
  <flow id="JF35934" begin="120" fromJunction="J4" toJunction="J0" end="180" vehsPerHour="65.08127647880065"/>
  <flow id="JF35935" begin="180" fromJunction="J0" toJunction="J2" end="240" vehsPerHour="77.2011393166177"/>
  <flow id="JF35936" begin="180" fromJunction="J0" toJunction="J4" end="240" vehsPerHour="102.8594773440769"/>
  <flow id="JF35937" begin="180" fromJunction="J2" toJunction="J0" end="240" vehsPerHour="132.53781976014588"/>
  <flow id="JF35938" begin="180" fromJunction="J2" toJunction="J4" end="240" vehsPerHour="25.127068127488986"/>
  <flow id="JF35939" begin="180" fromJunction="J3" toJunction="J0" end="240" vehsPerHour="90.37398340521106"/>
  <flow id="JF35940" begin="180" fromJunction="J3" toJunction="J2" end="240" vehsPerHour="69.35619159326166"/>
  <flow id="JF35941" begin="180" fromJunction="J3" toJunction="J4" end="240" vehsPerHour="45.201651906324"/>
  <flow id="JF35942" begin="180" fromJunction="J4" toJunction="J0" end="240" vehsPerHour="0.3065386314439607"/>
  <flow id="JF35943" begin="240" fromJunction="J0" toJunction="J2" end="300" vehsPerHour="134.9799241832535"/>
  <flow id="JF35944" begin="240" fromJunction="J2" toJunction="J0" end="300" vehsPerHour="46.05526740816232"/>
  <flow id="JF35945" begin="240" fromJunction="J2" toJunction="J4" end="300" vehsPerHour="132.3930557987138"/>
  <flow id="JF35946" begin="240" fromJunction="J3" toJunction="J4" end="300" vehsPerHour="20.032812989534726"/>
  <flow id="JF35947" begin="240" fromJunction="J4" toJunction="J0" end="300" vehsPerHour="41.72015816359924"/>
  <flow id="JF35948" begin="240" fromJunction="J4" toJunction="J2" end="300" vehsPerHour="75.52282492115975"/>
  <flow id="JF35949" begin="300" fromJunction="J0" toJunction="J3" end="360" vehsPerHour="71.0949393339367"/>
  <flow id="JF35950" begin="300" fromJunction="J0" toJunction="J4" end="360" vehsPerHour="26.55361713459616"/>
  <flow id="JF35951" begin="300" fromJunction="J2" toJunction="J0" end="360" vehsPerHour="128.81325801075"/>
  <flow id="JF35952" begin="300" fromJunction="J2" toJunction="J3" end="360" vehsPerHour="132.6188070136906"/>
  <flow id="JF35953" begin="300" fromJunction="J2" toJunction="J4" end="360" vehsPerHour="121.0896664311289"/>
  <flow id="JF35954" begin="300" fromJunction="J3" toJunction="J0" end="360" vehsPerHour="18.77257339042552"/>
  <flow id="JF35955" begin="300" fromJunction="J3" toJunction="J2" end="360" vehsPerHour="8.437919647498681"/>
  <flow id="JF35956" begin="300" fromJunction="J4" toJunction="J2" end="360" vehsPerHour="39.073706245648374"/>
  <flow id="JF35957" begin="300" fromJunction="J4" toJunction="J3" end="360" vehsPerHour="22.563172188860054"/>
  <flow id="JF35958" begin="360" fromJunction="J0" toJunction="J3" end="420" vehsPerHour="59.149953536312225"/>
  <flow id="JF35959" begin="360" fromJunction="J0" toJunction="J4" end="420" vehsPerHour="94.01014696913477"/>
  <flow id="JF35960" begin="360" fromJunction="J2" toJunction="J3" end="420" vehsPerHour="67.77128726505458"/>
  <flow id="JF35961" begin="360" fromJunction="J2" toJunction="J4" end="420" vehsPerHour="49.584228494134074"/>
  <flow id="JF35962" begin="360" fromJunction="J3" toJunction="J0" end="420" vehsPerHour="0.24480640617292643"/>
  <flow id="JF35963" begin="360" fromJunction="J3" toJunction="J4" end="420" vehsPerHour="39.24814469394454"/>
  <flow id="JF35964" begin="360" fromJunction="J4" toJunction="J0" end="420" vehsPerHour="29.18040181379615"/>
  <flow id="JF35965" begin="360" fromJunction="J4" toJunction="J2" end="420" vehsPerHour="46.18185012930963"/>
  <flow id="JF35966" begin="420" fromJunction="J0" toJunction="J2" end="480" vehsPerHour="92.48977615015215"/>
  <flow id="JF35967" begin="420" fromJunction="J2" toJunction="J0" end="480" vehsPerHour="87.14680410028079"/>
  <flow id="JF35968" begin="420" fromJunction="J2" toJunction="J3" end="480" vehsPerHour="36.32481497954962"/>
  <flow id="JF35969" begin="420" fromJunction="J2" toJunction="J4" end="480" vehsPerHour="12.433088840032418"/>
  <flow id="JF35970" begin="420" fromJunction="J3" toJunction="J0" end="480" vehsPerHour="89.33970898150724"/>
  <flow id="JF35971" begin="420" fromJunction="J3" toJunction="J4" end="480" vehsPerHour="21.912436067887327"/>
  <flow id="JF35972" begin="420" fromJunction="J4" toJunction="J0" end="480" vehsPerHour="98.23619236217496"/>
  <flow id="JF35973" begin="420" fromJunction="J4" toJunction="J2" end="480" vehsPerHour="60.80978450847506"/>
  <flow id="JF35974" begin="420" fromJunction="J4" toJunction="J3" end="480" vehsPerHour="117.21481886046239"/>
  <flow id="JF35975" begin="480" fromJunction="J0" toJunction="J2" end="540" vehsPerHour="96.01051948342895"/>
  <flow id="JF35976" begin="480" fromJunction="J0" toJunction="J4" end="540" vehsPerHour="125.24001823839187"/>
  <flow id="JF35977" begin="480" fromJunction="J2" toJunction="J0" end="540" vehsPerHour="46.72005793797145"/>
  <flow id="JF35978" begin="480" fromJunction="J2" toJunction="J3" end="540" vehsPerHour="83.83363297938023"/>
  <flow id="JF35979" begin="480" fromJunction="J2" toJunction="J4" end="540" vehsPerHour="84.46830371575605"/>
  <flow id="JF35980" begin="480" fromJunction="J3" toJunction="J0" end="540" vehsPerHour="82.48458543043878"/>
  <flow id="JF35981" begin="480" fromJunction="J3" toJunction="J2" end="540" vehsPerHour="80.07360712520031"/>
  <flow id="JF35982" begin="480" fromJunction="J3" toJunction="J4" end="540" vehsPerHour="70.48790306729086"/>
  <flow id="JF35983" begin="480" fromJunction="J4" toJunction="J0" end="540" vehsPerHour="15.894381713629642"/>
  <flow id="JF35984" begin="480" fromJunction="J4" toJunction="J2" end="540" vehsPerHour="107.9032751830939"/>
  <flow id="JF35985" begin="480" fromJunction="J4" toJunction="J3" end="540" vehsPerHour="42.79785969015763"/>
  <flow id="JF35986" begin="540" fromJunction="J0" toJunction="J2" end="600" vehsPerHour="96.43457616439667"/>
  <flow id="JF35987" begin="540" fromJunction="J0" toJunction="J4" end="600" vehsPerHour="68.1131239578426"/>
  <flow id="JF35988" begin="540" fromJunction="J2" toJunction="J0" end="600" vehsPerHour="21.39794732290132"/>
  <flow id="JF35989" begin="540" fromJunction="J2" toJunction="J3" end="600" vehsPerHour="133.48088866412186"/>
  <flow id="JF35990" begin="540" fromJunction="J2" toJunction="J4" end="600" vehsPerHour="128.67608808642845"/>
  <flow id="JF35991" begin="540" fromJunction="J3" toJunction="J2" end="600" vehsPerHour="14.376208437379656"/>
  <flow id="JF35992" begin="540" fromJunction="J3" toJunction="J4" end="600" vehsPerHour="121.9819599445991"/>
  <flow id="JF35993" begin="540" fromJunction="J4" toJunction="J3" end="600" vehsPerHour="2.9608202073551233"/>
  <flow id="JF35994" begin="600" fromJunction="J0" toJunction="J2" end="660" vehsPerHour="8.762363016739288"/>
  <flow id="JF35995" begin="600" fromJunction="J0" toJunction="J3" end="660" vehsPerHour="77.54415138937884"/>
  <flow id="JF35996" begin="600" fromJunction="J0" toJunction="J4" end="660" vehsPerHour="85.89293513280505"/>
  <flow id="JF35997" begin="600" fromJunction="J2" toJunction="J0" end="660" vehsPerHour="106.66507038803316"/>
  <flow id="JF35998" begin="600" fromJunction="J2" toJunction="J3" end="660" vehsPerHour="45.54929553597478"/>
  <flow id="JF35999" begin="600" fromJunction="J2" toJunction="J4" end="660" vehsPerHour="100.0914528376824"/>
  <flow id="JF36000" begin="600" fromJunction="J3" toJunction="J4" end="660" vehsPerHour="78.2756149172529"/>
  <flow id="JF36001" begin="600" fromJunction="J4" toJunction="J0" end="660" vehsPerHour="40.130800807387224"/>
  <flow id="JF36002" begin="600" fromJunction="J4" toJunction="J2" end="660" vehsPerHour="94.49395629997186"/>
  <flow id="JF36003" begin="660" fromJunction="J0" toJunction="J3" end="720" vehsPerHour="104.58432992623418"/>
  <flow id="JF36004" begin="660" fromJunction="J2" toJunction="J0" end="720" vehsPerHour="13.798762200037045"/>
  <flow id="JF36005" begin="660" fromJunction="J2" toJunction="J3" end="720" vehsPerHour="94.93227435862624"/>
  <flow id="JF36006" begin="660" fromJunction="J3" toJunction="J0" end="720" vehsPerHour="23.496313334180282"/>
  <flow id="JF36007" begin="660" fromJunction="J3" toJunction="J2" end="720" vehsPerHour="136.06619004141183"/>
  <flow id="JF36008" begin="660" fromJunction="J4" toJunction="J0" end="720" vehsPerHour="129.94650852044492"/>
  <flow id="JF36009" begin="660" fromJunction="J4" toJunction="J2" end="720" vehsPerHour="4.56738919445824"/>
  <flow id="JF36010" begin="660" fromJunction="J4" toJunction="J3" end="720" vehsPerHour="91.67083497090577"/>
  <flow id="JF36011" begin="720" fromJunction="J0" toJunction="J2" end="780" vehsPerHour="50.475170193089525"/>
  <flow id="JF36012" begin="720" fromJunction="J0" toJunction="J3" end="780" vehsPerHour="118.84534098648781"/>
  <flow id="JF36013" begin="720" fromJunction="J2" toJunction="J0" end="780" vehsPerHour="88.88897352340402"/>
  <flow id="JF36014" begin="720" fromJunction="J2" toJunction="J3" end="780" vehsPerHour="134.61757268993333"/>
  <flow id="JF36015" begin="720" fromJunction="J3" toJunction="J0" end="780" vehsPerHour="115.47851146406666"/>
  <flow id="JF36016" begin="720" fromJunction="J4" toJunction="J0" end="780" vehsPerHour="62.73811356919364"/>
  <flow id="JF36017" begin="720" fromJunction="J4" toJunction="J2" end="780" vehsPerHour="35.116555216374834"/>
  <flow id="JF36018" begin="720" fromJunction="J4" toJunction="J3" end="780" vehsPerHour="6.22640574278346"/>
  <flow id="JF36019" begin="780" fromJunction="J0" toJunction="J3" end="840" vehsPerHour="24.167862922581023"/>
  <flow id="JF36020" begin="780" fromJunction="J0" toJunction="J4" end="840" vehsPerHour="71.29163354813289"/>
  <flow id="JF36021" begin="780" fromJunction="J2" toJunction="J3" end="840" vehsPerHour="43.73097650203471"/>
  <flow id="JF36022" begin="780" fromJunction="J2" toJunction="J4" end="840" vehsPerHour="13.675672230069843"/>
  <flow id="JF36023" begin="780" fromJunction="J3" toJunction="J0" end="840" vehsPerHour="5.119647206010626"/>
  <flow id="JF36024" begin="780" fromJunction="J3" toJunction="J2" end="840" vehsPerHour="4.381526670306782"/>
  <flow id="JF36025" begin="780" fromJunction="J3" toJunction="J4" end="840" vehsPerHour="118.44984722837242"/>
  <flow id="JF36026" begin="780" fromJunction="J4" toJunction="J0" end="840" vehsPerHour="98.59637626015191"/>
  <flow id="JF36027" begin="780" fromJunction="J4" toJunction="J2" end="840" vehsPerHour="25.579134519828965"/>
  <flow id="JF36028" begin="780" fromJunction="J4" toJunction="J3" end="840" vehsPerHour="28.391019001584105"/>
  <flow id="JF36029" begin="840" fromJunction="J0" toJunction="J2" end="900" vehsPerHour="13.682219739849458"/>
  <flow id="JF36030" begin="840" fromJunction="J0" toJunction="J3" end="900" vehsPerHour="134.38590938536086"/>
  <flow id="JF36031" begin="840" fromJunction="J2" toJunction="J0" end="900" vehsPerHour="8.585959353694589"/>
  <flow id="JF36032" begin="840" fromJunction="J2" toJunction="J4" end="900" vehsPerHour="137.0627164699241"/>
  <flow id="JF36033" begin="840" fromJunction="J3" toJunction="J0" end="900" vehsPerHour="134.78932150184235"/>
  <flow id="JF36034" begin="840" fromJunction="J3" toJunction="J2" end="900" vehsPerHour="13.631874671864914"/>
  <flow id="JF36035" begin="840" fromJunction="J3" toJunction="J4" end="900" vehsPerHour="68.40123728158541"/>
  <flow id="JF36036" begin="840" fromJunction="J4" toJunction="J0" end="900" vehsPerHour="132.37960804589224"/>
  <flow id="JF36037" begin="840" fromJunction="J4" toJunction="J2" end="900" vehsPerHour="78.09924255713398"/>
  <flow id="JF36038" begin="840" fromJunction="J4" toJunction="J3" end="900" vehsPerHour="8.366150161873819"/>
  <flow id="JF36039" begin="900" fromJunction="J0" toJunction="J2" end="960" vehsPerHour="32.15697928858369"/>
  <flow id="JF36040" begin="900" fromJunction="J0" toJunction="J3" end="960" vehsPerHour="35.986689000721356"/>
  <flow id="JF36041" begin="900" fromJunction="J2" toJunction="J0" end="960" vehsPerHour="81.82186513034506"/>
  <flow id="JF36042" begin="900" fromJunction="J2" toJunction="J3" end="960" vehsPerHour="40.03720129730833"/>
  <flow id="JF36043" begin="900" fromJunction="J2" toJunction="J4" end="960" vehsPerHour="127.06449845994412"/>
  <flow id="JF36044" begin="900" fromJunction="J3" toJunction="J2" end="960" vehsPerHour="122.49578232382"/>
  <flow id="JF36045" begin="900" fromJunction="J4" toJunction="J0" end="960" vehsPerHour="20.456374522610858"/>
  <flow id="JF36046" begin="900" fromJunction="J4" toJunction="J2" end="960" vehsPerHour="82.08549344534954"/>
  <flow id="JF36047" begin="900" fromJunction="J4" toJunction="J3" end="960" vehsPerHour="42.83713189627393"/>
  <flow id="JF36048" begin="960" fromJunction="J0" toJunction="J2" end="1020" vehsPerHour="60.00280919377058"/>
  <flow id="JF36049" begin="960" fromJunction="J0" toJunction="J3" end="1020" vehsPerHour="35.8826574901405"/>
  <flow id="JF36050" begin="960" fromJunction="J0" toJunction="J4" end="1020" vehsPerHour="12.990376500705901"/>
  <flow id="JF36051" begin="960" fromJunction="J2" toJunction="J0" end="1020" vehsPerHour="28.281631220226313"/>
  <flow id="JF36052" begin="960" fromJunction="J2" toJunction="J3" end="1020" vehsPerHour="0.22663155667817705"/>
  <flow id="JF36053" begin="960" fromJunction="J3" toJunction="J4" end="1020" vehsPerHour="22.42247660312629"/>
  <flow id="JF36054" begin="960" fromJunction="J4" toJunction="J0" end="1020" vehsPerHour="29.305949065137806"/>
  <flow id="JF36055" begin="960" fromJunction="J4" toJunction="J2" end="1020" vehsPerHour="98.64497957148977"/>
  <flow id="JF36056" begin="1020" fromJunction="J0" toJunction="J2" end="1080" vehsPerHour="20.751489996259703"/>
  <flow id="JF36057" begin="1020" fromJunction="J0" toJunction="J3" end="1080" vehsPerHour="74.2392097363928"/>
  <flow id="JF36058" begin="1020" fromJunction="J2" toJunction="J3" end="1080" vehsPerHour="12.941195931798994"/>
  <flow id="JF36059" begin="1020" fromJunction="J2" toJunction="J4" end="1080" vehsPerHour="39.88672304640863"/>
  <flow id="JF36060" begin="1020" fromJunction="J3" toJunction="J4" end="1080" vehsPerHour="86.05813739450652"/>
  <flow id="JF36061" begin="1020" fromJunction="J4" toJunction="J0" end="1080" vehsPerHour="88.10909048811814"/>
  <flow id="JF36062" begin="1020" fromJunction="J4" toJunction="J2" end="1080" vehsPerHour="131.45816608777656"/>
  <flow id="JF36063" begin="1080" fromJunction="J0" toJunction="J2" end="1140" vehsPerHour="67.56287231705302"/>
  <flow id="JF36064" begin="1080" fromJunction="J0" toJunction="J3" end="1140" vehsPerHour="78.79577277275988"/>
  <flow id="JF36065" begin="1080" fromJunction="J0" toJunction="J4" end="1140" vehsPerHour="56.0302556840054"/>
  <flow id="JF36066" begin="1080" fromJunction="J2" toJunction="J0" end="1140" vehsPerHour="65.86173289745244"/>
  <flow id="JF36067" begin="1080" fromJunction="J2" toJunction="J3" end="1140" vehsPerHour="131.21008264602588"/>
  <flow id="JF36068" begin="1080" fromJunction="J3" toJunction="J0" end="1140" vehsPerHour="112.93757866940213"/>
  <flow id="JF36069" begin="1080" fromJunction="J3" toJunction="J2" end="1140" vehsPerHour="38.03613799605387"/>
  <flow id="JF36070" begin="1080" fromJunction="J3" toJunction="J4" end="1140" vehsPerHour="45.869489701760294"/>
  <flow id="JF36071" begin="1080" fromJunction="J4" toJunction="J3" end="1140" vehsPerHour="74.45641555088783"/>
  <flow id="JF36072" begin="1140" fromJunction="J0" toJunction="J2" end="1200" vehsPerHour="55.03364570226601"/>
  <flow id="JF36073" begin="1140" fromJunction="J0" toJunction="J3" end="1200" vehsPerHour="1.0993188951027268"/>
  <flow id="JF36074" begin="1140" fromJunction="J0" toJunction="J4" end="1200" vehsPerHour="14.213589924910329"/>
  <flow id="JF36075" begin="1140" fromJunction="J2" toJunction="J3" end="1200" vehsPerHour="54.88746485092332"/>
  <flow id="JF36076" begin="1140" fromJunction="J2" toJunction="J4" end="1200" vehsPerHour="42.77300441835041"/>
  <flow id="JF36077" begin="1140" fromJunction="J3" toJunction="J0" end="1200" vehsPerHour="52.3540212070382"/>
  <flow id="JF36078" begin="1140" fromJunction="J3" toJunction="J4" end="1200" vehsPerHour="44.45092234543003"/>
  <flow id="JF36079" begin="1140" fromJunction="J4" toJunction="J0" end="1200" vehsPerHour="68.98986553156588"/>
  <flow id="JF36080" begin="1140" fromJunction="J4" toJunction="J3" end="1200" vehsPerHour="51.5263181851572"/>
  <flow id="JF36081" begin="1200" fromJunction="J0" toJunction="J2" end="1260" vehsPerHour="2.293106269694914"/>
  <flow id="JF36082" begin="1200" fromJunction="J0" toJunction="J3" end="1260" vehsPerHour="34.82163345719161"/>
  <flow id="JF36083" begin="1200" fromJunction="J2" toJunction="J3" end="1260" vehsPerHour="58.07853733066382"/>
  <flow id="JF36084" begin="1200" fromJunction="J2" toJunction="J4" end="1260" vehsPerHour="76.99797697395648"/>
  <flow id="JF36085" begin="1200" fromJunction="J3" toJunction="J2" end="1260" vehsPerHour="95.03241820412629"/>
  <flow id="JF36086" begin="1200" fromJunction="J3" toJunction="J4" end="1260" vehsPerHour="131.8814888072403"/>
  <flow id="JF36087" begin="1200" fromJunction="J4" toJunction="J0" end="1260" vehsPerHour="117.87388283008465"/>
  <flow id="JF36088" begin="1200" fromJunction="J4" toJunction="J2" end="1260" vehsPerHour="131.11545631617224"/>
  <flow id="JF36089" begin="1200" fromJunction="J4" toJunction="J3" end="1260" vehsPerHour="29.196587489624644"/>
  <flow id="JF36090" begin="1260" fromJunction="J0" toJunction="J2" end="1320" vehsPerHour="38.524298248318566"/>
  <flow id="JF36091" begin="1260" fromJunction="J0" toJunction="J4" end="1320" vehsPerHour="108.87089445776705"/>
  <flow id="JF36092" begin="1260" fromJunction="J2" toJunction="J0" end="1320" vehsPerHour="113.0122671997017"/>
  <flow id="JF36093" begin="1260" fromJunction="J2" toJunction="J3" end="1320" vehsPerHour="111.37687255344919"/>
  <flow id="JF36094" begin="1260" fromJunction="J3" toJunction="J0" end="1320" vehsPerHour="24.780508875833203"/>
  <flow id="JF36095" begin="1260" fromJunction="J4" toJunction="J2" end="1320" vehsPerHour="24.405086024644344"/>
  <flow id="JF36096" begin="1260" fromJunction="J4" toJunction="J3" end="1320" vehsPerHour="101.47221693471835"/>
  <flow id="JF36097" begin="1320" fromJunction="J0" toJunction="J3" end="1380" vehsPerHour="70.82627916980952"/>
  <flow id="JF36098" begin="1320" fromJunction="J0" toJunction="J4" end="1380" vehsPerHour="25.079118693177293"/>
  <flow id="JF36099" begin="1320" fromJunction="J2" toJunction="J0" end="1380" vehsPerHour="15.402441550906545"/>
  <flow id="JF36100" begin="1320" fromJunction="J2" toJunction="J3" end="1380" vehsPerHour="69.16863245972095"/>
  <flow id="JF36101" begin="1320" fromJunction="J2" toJunction="J4" end="1380" vehsPerHour="71.11299072652633"/>
  <flow id="JF36102" begin="1320" fromJunction="J3" toJunction="J0" end="1380" vehsPerHour="64.64709416682568"/>
  <flow id="JF36103" begin="1320" fromJunction="J3" toJunction="J2" end="1380" vehsPerHour="118.14344867294065"/>
  <flow id="JF36104" begin="1320" fromJunction="J3" toJunction="J4" end="1380" vehsPerHour="59.36514140104134"/>
  <flow id="JF36105" begin="1320" fromJunction="J4" toJunction="J0" end="1380" vehsPerHour="108.61072281513565"/>
  <flow id="JF36106" begin="1320" fromJunction="J4" toJunction="J2" end="1380" vehsPerHour="29.076068621060777"/>
  <flow id="JF36107" begin="1380" fromJunction="J0" toJunction="J2" end="1440" vehsPerHour="14.345791699252905"/>
  <flow id="JF36108" begin="1380" fromJunction="J0" toJunction="J3" end="1440" vehsPerHour="21.829518184596992"/>
  <flow id="JF36109" begin="1380" fromJunction="J0" toJunction="J4" end="1440" vehsPerHour="110.70926922005461"/>
  <flow id="JF36110" begin="1380" fromJunction="J2" toJunction="J0" end="1440" vehsPerHour="91.88184626879733"/>
  <flow id="JF36111" begin="1380" fromJunction="J2" toJunction="J3" end="1440" vehsPerHour="93.3078043390887"/>
  <flow id="JF36112" begin="1380" fromJunction="J2" toJunction="J4" end="1440" vehsPerHour="115.62137000411849"/>
  <flow id="JF36113" begin="1380" fromJunction="J3" toJunction="J0" end="1440" vehsPerHour="69.48584037592877"/>
  <flow id="JF36114" begin="1380" fromJunction="J3" toJunction="J2" end="1440" vehsPerHour="77.0778186446507"/>
  <flow id="JF36115" begin="1380" fromJunction="J4" toJunction="J0" end="1440" vehsPerHour="45.8820418404452"/>
  <flow id="JF36116" begin="1380" fromJunction="J4" toJunction="J3" end="1440" vehsPerHour="55.87858845261711"/>
  <flow id="JF36117" begin="1440" fromJunction="J0" toJunction="J3" end="1500" vehsPerHour="112.8844578232941"/>
  <flow id="JF36118" begin="1440" fromJunction="J0" toJunction="J4" end="1500" vehsPerHour="97.12920904345006"/>
  <flow id="JF36119" begin="1440" fromJunction="J2" toJunction="J3" end="1500" vehsPerHour="41.48541422459516"/>
  <flow id="JF36120" begin="1440" fromJunction="J2" toJunction="J4" end="1500" vehsPerHour="35.836472943169746"/>
  <flow id="JF36121" begin="1440" fromJunction="J3" toJunction="J0" end="1500" vehsPerHour="0.6008651986624232"/>
  <flow id="JF36122" begin="1440" fromJunction="J3" toJunction="J2" end="1500" vehsPerHour="60.82292840285149"/>
  <flow id="JF36123" begin="1440" fromJunction="J3" toJunction="J4" end="1500" vehsPerHour="39.8529195089434"/>
  <flow id="JF36124" begin="1440" fromJunction="J4" toJunction="J0" end="1500" vehsPerHour="132.1869592595588"/>
  <flow id="JF36125" begin="1440" fromJunction="J4" toJunction="J2" end="1500" vehsPerHour="29.58129728740162"/>
  <flow id="JF36126" begin="1500" fromJunction="J0" toJunction="J2" end="1560" vehsPerHour="69.28279208944981"/>
  <flow id="JF36127" begin="1500" fromJunction="J0" toJunction="J3" end="1560" vehsPerHour="86.45498199899713"/>
  <flow id="JF36128" begin="1500" fromJunction="J0" toJunction="J4" end="1560" vehsPerHour="126.61174677822062"/>
  <flow id="JF36129" begin="1500" fromJunction="J2" toJunction="J4" end="1560" vehsPerHour="127.61388029915996"/>
  <flow id="JF36130" begin="1500" fromJunction="J3" toJunction="J0" end="1560" vehsPerHour="133.65139884235847"/>
  <flow id="JF36131" begin="1500" fromJunction="J3" toJunction="J2" end="1560" vehsPerHour="5.272442402447256"/>
  <flow id="JF36132" begin="1500" fromJunction="J4" toJunction="J2" end="1560" vehsPerHour="128.40333306885282"/>
  <flow id="JF36133" begin="1500" fromJunction="J4" toJunction="J3" end="1560" vehsPerHour="89.8064640522915"/>
  <flow id="JF36134" begin="1560" fromJunction="J0" toJunction="J2" end="1620" vehsPerHour="8.925252584135754"/>
  <flow id="JF36135" begin="1560" fromJunction="J0" toJunction="J3" end="1620" vehsPerHour="21.924058499545584"/>
  <flow id="JF36136" begin="1560" fromJunction="J0" toJunction="J4" end="1620" vehsPerHour="101.06655694684174"/>
  <flow id="JF36137" begin="1560" fromJunction="J2" toJunction="J0" end="1620" vehsPerHour="122.59793178882099"/>
  <flow id="JF36138" begin="1560" fromJunction="J2" toJunction="J4" end="1620" vehsPerHour="97.97878137567237"/>
  <flow id="JF36139" begin="1560" fromJunction="J3" toJunction="J0" end="1620" vehsPerHour="112.07663895778236"/>
  <flow id="JF36140" begin="1560" fromJunction="J3" toJunction="J4" end="1620" vehsPerHour="126.12754770220047"/>
  <flow id="JF36141" begin="1560" fromJunction="J4" toJunction="J0" end="1620" vehsPerHour="49.934404404643374"/>
  <flow id="JF36142" begin="1560" fromJunction="J4" toJunction="J2" end="1620" vehsPerHour="130.93977584662187"/>
  <flow id="JF36143" begin="1560" fromJunction="J4" toJunction="J3" end="1620" vehsPerHour="84.21959713876944"/>
  <flow id="JF36144" begin="1620" fromJunction="J0" toJunction="J2" end="1680" vehsPerHour="116.63967609332761"/>
  <flow id="JF36145" begin="1620" fromJunction="J0" toJunction="J4" end="1680" vehsPerHour="78.48207993417465"/>
  <flow id="JF36146" begin="1620" fromJunction="J2" toJunction="J0" end="1680" vehsPerHour="62.637683281972436"/>
  <flow id="JF36147" begin="1620" fromJunction="J2" toJunction="J3" end="1680" vehsPerHour="49.741372400211134"/>
  <flow id="JF36148" begin="1620" fromJunction="J2" toJunction="J4" end="1680" vehsPerHour="21.720533628134323"/>
  <flow id="JF36149" begin="1620" fromJunction="J3" toJunction="J0" end="1680" vehsPerHour="5.441400311314731"/>
  <flow id="JF36150" begin="1620" fromJunction="J3" toJunction="J2" end="1680" vehsPerHour="27.658965718802257"/>
  <flow id="JF36151" begin="1620" fromJunction="J3" toJunction="J4" end="1680" vehsPerHour="71.31640288278142"/>
  <flow id="JF36152" begin="1620" fromJunction="J4" toJunction="J0" end="1680" vehsPerHour="67.85678529892319"/>
  <flow id="JF36153" begin="1620" fromJunction="J4" toJunction="J2" end="1680" vehsPerHour="95.75545632137643"/>
  <flow id="JF36154" begin="1620" fromJunction="J4" toJunction="J3" end="1680" vehsPerHour="48.7535898568386"/>
  <flow id="JF36155" begin="1680" fromJunction="J0" toJunction="J2" end="1740" vehsPerHour="27.45937954946661"/>
  <flow id="JF36156" begin="1680" fromJunction="J0" toJunction="J3" end="1740" vehsPerHour="118.29908876278917"/>
  <flow id="JF36157" begin="1680" fromJunction="J0" toJunction="J4" end="1740" vehsPerHour="6.02941634455995"/>
  <flow id="JF36158" begin="1680" fromJunction="J2" toJunction="J0" end="1740" vehsPerHour="130.94349558407893"/>
  <flow id="JF36159" begin="1680" fromJunction="J2" toJunction="J3" end="1740" vehsPerHour="53.52477605205572"/>
  <flow id="JF36160" begin="1680" fromJunction="J2" toJunction="J4" end="1740" vehsPerHour="87.394826185054"/>
  <flow id="JF36161" begin="1680" fromJunction="J3" toJunction="J4" end="1740" vehsPerHour="83.27704041034927"/>
  <flow id="JF36162" begin="1680" fromJunction="J4" toJunction="J0" end="1740" vehsPerHour="109.80980440788059"/>
  <flow id="JF36163" begin="1680" fromJunction="J4" toJunction="J2" end="1740" vehsPerHour="115.42390066809314"/>
  <flow id="JF36164" begin="1680" fromJunction="J4" toJunction="J3" end="1740" vehsPerHour="113.42239293746952"/>
  <flow id="JF36165" begin="1740" fromJunction="J0" toJunction="J2" end="1800" vehsPerHour="7.370339094308014"/>
  <flow id="JF36166" begin="1740" fromJunction="J0" toJunction="J3" end="1800" vehsPerHour="3.022533157623019"/>
  <flow id="JF36167" begin="1740" fromJunction="J0" toJunction="J4" end="1800" vehsPerHour="72.87330770100768"/>
  <flow id="JF36168" begin="1740" fromJunction="J2" toJunction="J0" end="1800" vehsPerHour="84.65221807648653"/>
  <flow id="JF36169" begin="1740" fromJunction="J2" toJunction="J4" end="1800" vehsPerHour="6.252281841751769"/>
  <flow id="JF36170" begin="1740" fromJunction="J3" toJunction="J2" end="1800" vehsPerHour="124.24411331738607"/>
  <flow id="JF36171" begin="1740" fromJunction="J4" toJunction="J0" end="1800" vehsPerHour="53.842893549341476"/>
  <flow id="JF36172" begin="1800" fromJunction="J0" toJunction="J2" end="1860" vehsPerHour="48.03218055754573"/>
  <flow id="JF36173" begin="1800" fromJunction="J0" toJunction="J3" end="1860" vehsPerHour="25.378770728999005"/>
  <flow id="JF36174" begin="1800" fromJunction="J2" toJunction="J0" end="1860" vehsPerHour="43.23782872171224"/>
  <flow id="JF36175" begin="1800" fromJunction="J2" toJunction="J4" end="1860" vehsPerHour="131.78821842634898"/>
  <flow id="JF36176" begin="1800" fromJunction="J3" toJunction="J0" end="1860" vehsPerHour="98.57695148640896"/>
  <flow id="JF36177" begin="1800" fromJunction="J3" toJunction="J4" end="1860" vehsPerHour="7.787184871451074"/>