<?xml version="1.0" encoding="UTF-8"?>
<routes xmlns:xsi="http://www.w3.org/2001/XMLSchema-instance" xsi:noNamespaceSchemaLocation="http://sumo.dlr.de/xsd/routes_file.xsd">
  <flow id="JF20300" begin="0" fromJunction="J3" toJunction="J0" end="60" vehsPerHour="46.076109749205976" departLane="free"/>
  <flow id="JF20301" begin="0" fromJunction="J0" toJunction="J3" end="60" vehsPerHour="3.3701655841426783" departLane="free"/>
  <flow id="JF20302" begin="0" fromJunction="J3" toJunction="J6" end="60" vehsPerHour="59.32848898384226" departLane="free"/>
  <flow id="JF20303" begin="0" fromJunction="J3" toJunction="J7" end="60" vehsPerHour="78.86621072368726" departLane="free"/>
  <flow id="JF20304" begin="0" fromJunction="J3" toJunction="J5" end="60" vehsPerHour="253.7452527444243" departLane="free"/>
  <flow id="JF20305" begin="0" fromJunction="J3" toJunction="J4" end="60" vehsPerHour="244.85311118788425" departLane="free"/>
  <flow id="JF20306" begin="0" fromJunction="J0" toJunction="J6" end="60" vehsPerHour="254.00635860823948" departLane="free"/>
  <flow id="JF20307" begin="0" fromJunction="J0" toJunction="J7" end="60" vehsPerHour="454.56131947768296" departLane="free"/>
  <flow id="JF20308" begin="0" fromJunction="J0" toJunction="J5" end="60" vehsPerHour="408.79058716098024" departLane="free"/>
  <flow id="JF20309" begin="0" fromJunction="J0" toJunction="J4" end="60" vehsPerHour="342.5968677640061" departLane="free"/>
  <flow id="JF20310" begin="60" fromJunction="J3" toJunction="J0" end="120" vehsPerHour="57.91597257236903" departLane="free"/>
  <flow id="JF20311" begin="60" fromJunction="J0" toJunction="J3" end="120" vehsPerHour="69.8835509164083" departLane="free"/>
  <flow id="JF20312" begin="60" fromJunction="J3" toJunction="J6" end="120" vehsPerHour="280.1383943123423" departLane="free"/>
  <flow id="JF20313" begin="60" fromJunction="J3" toJunction="J7" end="120" vehsPerHour="125.77885490329209" departLane="free"/>
  <flow id="JF20314" begin="60" fromJunction="J3" toJunction="J5" end="120" vehsPerHour="258.84186085906094" departLane="free"/>
  <flow id="JF20315" begin="60" fromJunction="J3" toJunction="J4" end="120" vehsPerHour="264.3073075721599" departLane="free"/>
  <flow id="JF20316" begin="60" fromJunction="J0" toJunction="J6" end="120" vehsPerHour="348.8523886732444" departLane="free"/>
  <flow id="JF20317" begin="60" fromJunction="J0" toJunction="J7" end="120" vehsPerHour="307.1276657972908" departLane="free"/>
  <flow id="JF20318" begin="60" fromJunction="J0" toJunction="J5" end="120" vehsPerHour="224.5981530034025" departLane="free"/>
  <flow id="JF20319" begin="60" fromJunction="J0" toJunction="J4" end="120" vehsPerHour="27.045669459956994" departLane="free"/>
  <flow id="JF20320" begin="60" fromJunction="J6" toJunction="J7" end="120" vehsPerHour="1.4962179544523304" departLane="free"/>
  <flow id="JF20321" begin="60" fromJunction="J6" toJunction="J5" end="120" vehsPerHour="3.6598153371347553" departLane="free"/>
  <flow id="JF20322" begin="60" fromJunction="J6" toJunction="J4" end="120" vehsPerHour="20.33861328224629" departLane="free"/>
  <flow id="JF20323" begin="60" fromJunction="J7" toJunction="J6" end="120" vehsPerHour="16.33809117198076" departLane="free"/>
  <flow id="JF20324" begin="60" fromJunction="J7" toJunction="J5" end="120" vehsPerHour="18.923225436567336" departLane="free"/>
  <flow id="JF20325" begin="60" fromJunction="J7" toJunction="J4" end="120" vehsPerHour="8.58901311237242" departLane="free"/>
  <flow id="JF20326" begin="60" fromJunction="J5" toJunction="J6" end="120" vehsPerHour="18.300517817739617" departLane="free"/>
  <flow id="JF20327" begin="60" fromJunction="J5" toJunction="J7" end="120" vehsPerHour="41.50631584220927" departLane="free"/>
  <flow id="JF20328" begin="60" fromJunction="J5" toJunction="J4" end="120" vehsPerHour="23.835145059181325" departLane="free"/>
  <flow id="JF20329" begin="60" fromJunction="J4" toJunction="J6" end="120" vehsPerHour="12.235862023225394" departLane="free"/>
  <flow id="JF20330" begin="60" fromJunction="J4" toJunction="J7" end="120" vehsPerHour="29.512394735965792" departLane="free"/>
  <flow id="JF20331" begin="60" fromJunction="J4" toJunction="J5" end="120" vehsPerHour="46.97652778485676" departLane="free"/>
  <flow id="JF20332" begin="60" fromJunction="J6" toJunction="J3" end="120" vehsPerHour="119.81341367109215" departLane="free"/>
  <flow id="JF20333" begin="60" fromJunction="J6" toJunction="J0" end="120" vehsPerHour="71.48162570637493" departLane="free"/>
  <flow id="JF20334" begin="60" fromJunction="J7" toJunction="J3" end="120" vehsPerHour="93.35222158307903" departLane="free"/>
  <flow id="JF20335" begin="60" fromJunction="J7" toJunction="J0" end="120" vehsPerHour="4.676507554356081" departLane="free"/>
  <flow id="JF20336" begin="60" fromJunction="J5" toJunction="J3" end="120" vehsPerHour="48.96193999344636" departLane="free"/>
  <flow id="JF20337" begin="60" fromJunction="J5" toJunction="J0" end="120" vehsPerHour="33.038044957277215" departLane="free"/>
  <flow id="JF20338" begin="60" fromJunction="J4" toJunction="J3" end="120" vehsPerHour="133.74368645466657" departLane="free"/>
  <flow id="JF20339" begin="60" fromJunction="J4" toJunction="J0" end="120" vehsPerHour="102.71888206553047" departLane="free"/>
  <flow id="JF20340" begin="120" fromJunction="J3" toJunction="J0" end="180" vehsPerHour="66.86546809729573" departLane="free"/>
  <flow id="JF20341" begin="120" fromJunction="J0" toJunction="J3" end="180" vehsPerHour="29.08707204302908" departLane="free"/>
  <flow id="JF20342" begin="120" fromJunction="J3" toJunction="J6" end="180" vehsPerHour="224.84786553046627" departLane="free"/>
  <flow id="JF20343" begin="120" fromJunction="J3" toJunction="J7" end="180" vehsPerHour="428.2921104213636" departLane="free"/>
  <flow id="JF20344" begin="120" fromJunction="J3" toJunction="J5" end="180" vehsPerHour="181.96364499256535" departLane="free"/>
  <flow id="JF20345" begin="120" fromJunction="J3" toJunction="J4" end="180" vehsPerHour="277.78759169820626" departLane="free"/>
  <flow id="JF20346" begin="120" fromJunction="J0" toJunction="J6" end="180" vehsPerHour="14.28956888855205" departLane="free"/>
  <flow id="JF20347" begin="120" fromJunction="J0" toJunction="J7" end="180" vehsPerHour="314.2008888036741" departLane="free"/>
  <flow id="JF20348" begin="120" fromJunction="J0" toJunction="J5" end="180" vehsPerHour="463.5850239864535" departLane="free"/>
  <flow id="JF20349" begin="120" fromJunction="J0" toJunction="J4" end="180" vehsPerHour="249.80439206603103" departLane="free"/>
  <flow id="JF20350" begin="180" fromJunction="J3" toJunction="J0" end="240" vehsPerHour="24.562002476909438" departLane="free"/>
  <flow id="JF20351" begin="180" fromJunction="J0" toJunction="J3" end="240" vehsPerHour="77.85654119085201" departLane="free"/>
  <flow id="JF20352" begin="180" fromJunction="J3" toJunction="J6" end="240" vehsPerHour="336.95874625413256" departLane="free"/>
  <flow id="JF20353" begin="180" fromJunction="J3" toJunction="J7" end="240" vehsPerHour="526.3590563622323" departLane="free"/>
  <flow id="JF20354" begin="180" fromJunction="J3" toJunction="J5" end="240" vehsPerHour="233.66234513513473" departLane="free"/>
  <flow id="JF20355" begin="180" fromJunction="J3" toJunction="J4" end="240" vehsPerHour="371.3565686048252" departLane="free"/>
  <flow id="JF20356" begin="180" fromJunction="J0" toJunction="J6" end="240" vehsPerHour="65.31876843654075" departLane="free"/>
  <flow id="JF20357" begin="180" fromJunction="J0" toJunction="J7" end="240" vehsPerHour="541.1273968554334" departLane="free"/>
  <flow id="JF20358" begin="180" fromJunction="J0" toJunction="J5" end="240" vehsPerHour="371.2673799322948" departLane="free"/>
  <flow id="JF20359" begin="180" fromJunction="J0" toJunction="J4" end="240" vehsPerHour="162.9798124294135" departLane="free"/>
  <flow id="JF20360" begin="180" fromJunction="J6" toJunction="J7" end="240" vehsPerHour="44.191112304085" departLane="free"/>
  <flow id="JF20361" begin="180" fromJunction="J6" toJunction="J5" end="240" vehsPerHour="17.83069976922559" departLane="free"/>
  <flow id="JF20362" begin="180" fromJunction="J6" toJunction="J4" end="240" vehsPerHour="20.889485950013356" departLane="free"/>
  <flow id="JF20363" begin="180" fromJunction="J7" toJunction="J6" end="240" vehsPerHour="23.876639869728685" departLane="free"/>
  <flow id="JF20364" begin="180" fromJunction="J7" toJunction="J5" end="240" vehsPerHour="12.788489798771776" departLane="free"/>
  <flow id="JF20365" begin="180" fromJunction="J7" toJunction="J4" end="240" vehsPerHour="8.48941551275504" departLane="free"/>
  <flow id="JF20366" begin="180" fromJunction="J5" toJunction="J6" end="240" vehsPerHour="16.370519914755302" departLane="free"/>
  <flow id="JF20367" begin="180" fromJunction="J5" toJunction="J7" end="240" vehsPerHour="64.65563537722883" departLane="free"/>
  <flow id="JF20368" begin="180" fromJunction="J5" toJunction="J4" end="240" vehsPerHour="17.95881868666804" departLane="free"/>
  <flow id="JF20369" begin="180" fromJunction="J4" toJunction="J6" end="240" vehsPerHour="19.270229484107766" departLane="free"/>
  <flow id="JF20370" begin="180" fromJunction="J4" toJunction="J7" end="240" vehsPerHour="22.391086957265568" departLane="free"/>
  <flow id="JF20371" begin="180" fromJunction="J4" toJunction="J5" end="240" vehsPerHour="31.39792126650095" departLane="free"/>
  <flow id="JF20372" begin="180" fromJunction="J6" toJunction="J3" end="240" vehsPerHour="38.68447717482054" departLane="free"/>
  <flow id="JF20373" begin="180" fromJunction="J6" toJunction="J0" end="240" vehsPerHour="85.91195757129576" departLane="free"/>
  <flow id="JF20374" begin="180" fromJunction="J7" toJunction="J3" end="240" vehsPerHour="13.75444498807232" departLane="free"/>
  <flow id="JF20375" begin="180" fromJunction="J7" toJunction="J0" end="240" vehsPerHour="105.46050436489821" departLane="free"/>
  <flow id="JF20376" begin="180" fromJunction="J5" toJunction="J3" end="240" vehsPerHour="35.338013813631136" departLane="free"/>
  <flow id="JF20377" begin="180" fromJunction="J5" toJunction="J0" end="240" vehsPerHour="8.697103809043083" departLane="free"/>
  <flow id="JF20378" begin="180" fromJunction="J4" toJunction="J3" end="240" vehsPerHour="2.8935020091435444" departLane="free"/>
  <flow id="JF20379" begin="180" fromJunction="J4" toJunction="J0" end="240" vehsPerHour="126.77524910877918" departLane="free"/>
  <flow id="JF20380" begin="240" fromJunction="J3" toJunction="J0" end="300" vehsPerHour="31.687730519269685" departLane="free"/>
  <flow id="JF20381" begin="240" fromJunction="J0" toJunction="J3" end="300" vehsPerHour="52.66720161047417" departLane="free"/>
  <flow id="JF20382" begin="240" fromJunction="J3" toJunction="J6" end="300" vehsPerHour="245.86670428579126" departLane="free"/>
  <flow id="JF20383" begin="240" fromJunction="J3" toJunction="J7" end="300" vehsPerHour="119.82601856418502" departLane="free"/>
  <flow id="JF20384" begin="240" fromJunction="J3" toJunction="J5" end="300" vehsPerHour="336.9761369569283" departLane="free"/>
  <flow id="JF20385" begin="240" fromJunction="J3" toJunction="J4" end="300" vehsPerHour="201.59413536688672" departLane="free"/>
  <flow id="JF20386" begin="240" fromJunction="J0" toJunction="J6" end="300" vehsPerHour="75.04169980888777" departLane="free"/>
  <flow id="JF20387" begin="240" fromJunction="J0" toJunction="J7" end="300" vehsPerHour="142.84642577184925" departLane="free"/>
  <flow id="JF20388" begin="240" fromJunction="J0" toJunction="J5" end="300" vehsPerHour="524.872186560789" departLane="free"/>
  <flow id="JF20389" begin="240" fromJunction="J0" toJunction="J4" end="300" vehsPerHour="240.09664941405464" departLane="free"/>
  <flow id="JF20390" begin="240" fromJunction="J6" toJunction="J7" end="300" vehsPerHour="0.6811060972541015" departLane="free"/>
  <flow id="JF20391" begin="240" fromJunction="J6" toJunction="J5" end="300" vehsPerHour="7.094957752577961" departLane="free"/>
  <flow id="JF20392" begin="240" fromJunction="J6" toJunction="J4" end="300" vehsPerHour="13.631233204481141" departLane="free"/>
  <flow id="JF20393" begin="240" fromJunction="J7" toJunction="J6" end="300" vehsPerHour="21.953732050241637" departLane="free"/>
  <flow id="JF20394" begin="240" fromJunction="J7" toJunction="J5" end="300" vehsPerHour="4.871193359749378" departLane="free"/>
  <flow id="JF20395" begin="240" fromJunction="J7" toJunction="J4" end="300" vehsPerHour="32.55307039347246" departLane="free"/>
  <flow id="JF20396" begin="240" fromJunction="J5" toJunction="J6" end="300" vehsPerHour="7.735180342600966" departLane="free"/>
  <flow id="JF20397" begin="240" fromJunction="J5" toJunction="J7" end="300" vehsPerHour="60.75493958535786" departLane="free"/>
  <flow id="JF20398" begin="240" fromJunction="J5" toJunction="J4" end="300" vehsPerHour="21.44378393984138" departLane="free"/>
  <flow id="JF20399" begin="240" fromJunction="J4" toJunction="J6" end="300" vehsPerHour="2.422532503990424" departLane="free"/>
  <flow id="JF20400" begin="240" fromJunction="J4" toJunction="J7" end="300" vehsPerHour="24.37816054584541" departLane="free"/>
  <flow id="JF20401" begin="240" fromJunction="J4" toJunction="J5" end="300" vehsPerHour="25.63113887977306" departLane="free"/>
  <flow id="JF20402" begin="240" fromJunction="J6" toJunction="J3" end="300" vehsPerHour="15.178190134802136" departLane="free"/>
  <flow id="JF20403" begin="240" fromJunction="J6" toJunction="J0" end="300" vehsPerHour="81.39665242854407" departLane="free"/>
  <flow id="JF20404" begin="240" fromJunction="J7" toJunction="J3" end="300" vehsPerHour="0.8747643319931488" departLane="free"/>
  <flow id="JF20405" begin="240" fromJunction="J7" toJunction="J0" end="300" vehsPerHour="79.66478770024834" departLane="free"/>
  <flow id="JF20406" begin="240" fromJunction="J5" toJunction="J3" end="300" vehsPerHour="7.560862100068092" departLane="free"/>
  <flow id="JF20407" begin="240" fromJunction="J5" toJunction="J0" end="300" vehsPerHour="132.84240259545194" departLane="free"/>
  <flow id="JF20408" begin="240" fromJunction="J4" toJunction="J3" end="300" vehsPerHour="128.41130131493378" departLane="free"/>
  <flow id="JF20409" begin="240" fromJunction="J4" toJunction="J0" end="300" vehsPerHour="118.69224205736778" departLane="free"/>
  <flow id="JF20410" begin="300" fromJunction="J3" toJunction="J0" end="360" vehsPerHour="57.901877279984284" departLane="free"/>
  <flow id="JF20411" begin="300" fromJunction="J0" toJunction="J3" end="360" vehsPerHour="82.37722051787416" departLane="free"/>
  <flow id="JF20412" begin="300" fromJunction="J3" toJunction="J6" end="360" vehsPerHour="498.74467631183205" departLane="free"/>
  <flow id="JF20413" begin="300" fromJunction="J3" toJunction="J7" end="360" vehsPerHour="409.7505644715662" departLane="free"/>
  <flow id="JF20414" begin="300" fromJunction="J3" toJunction="J5" end="360" vehsPerHour="270.4582724467232" departLane="free"/>
  <flow id="JF20415" begin="300" fromJunction="J3" toJunction="J4" end="360" vehsPerHour="281.21739775197557" departLane="free"/>
  <flow id="JF20416" begin="300" fromJunction="J0" toJunction="J6" end="360" vehsPerHour="82.45584460358367" departLane="free"/>
  <flow id="JF20417" begin="300" fromJunction="J0" toJunction="J7" end="360" vehsPerHour="141.5454747939468" departLane="free"/>
  <flow id="JF20418" begin="300" fromJunction="J0" toJunction="J5" end="360" vehsPerHour="483.9442285096777" departLane="free"/>
  <flow id="JF20419" begin="300" fromJunction="J0" toJunction="J4" end="360" vehsPerHour="122.81732470327324" departLane="free"/>
  <flow id="JF20420" begin="300" fromJunction="J6" toJunction="J7" end="360" vehsPerHour="9.014247985875457" departLane="free"/>
  <flow id="JF20421" begin="300" fromJunction="J6" toJunction="J5" end="360" vehsPerHour="12.936104022394925" departLane="free"/>
  <flow id="JF20422" begin="300" fromJunction="J6" toJunction="J4" end="360" vehsPerHour="24.009372789013884" departLane="free"/>
  <flow id="JF20423" begin="300" fromJunction="J7" toJunction="J6" end="360" vehsPerHour="30.734986998028372" departLane="free"/>
  <flow id="JF20424" begin="300" fromJunction="J7" toJunction="J5" end="360" vehsPerHour="8.347506399844542" departLane="free"/>
  <flow id="JF20425" begin="300" fromJunction="J7" toJunction="J4" end="360" vehsPerHour="4.201185135882329" departLane="free"/>
  <flow id="JF20426" begin="300" fromJunction="J5" toJunction="J6" end="360" vehsPerHour="34.825305116238084" departLane="free"/>
  <flow id="JF20427" begin="300" fromJunction="J5" toJunction="J7" end="360" vehsPerHour="8.991354806763747" departLane="free"/>
  <flow id="JF20428" begin="300" fromJunction="J5" toJunction="J4" end="360" vehsPerHour="2.6739339914812748" departLane="free"/>
  <flow id="JF20429" begin="300" fromJunction="J4" toJunction="J6" end="360" vehsPerHour="20.375299052092416" departLane="free"/>
  <flow id="JF20430" begin="300" fromJunction="J4" toJunction="J7" end="360" vehsPerHour="60.800620917631164" departLane="free"/>
  <flow id="JF20431" begin="300" fromJunction="J4" toJunction="J5" end="360" vehsPerHour="58.887175392377" departLane="free"/>
  <flow id="JF20432" begin="300" fromJunction="J6" toJunction="J3" end="360" vehsPerHour="105.32111763442353" departLane="free"/>
  <flow id="JF20433" begin="300" fromJunction="J6" toJunction="J0" end="360" vehsPerHour="117.68978475243998" departLane="free"/>
  <flow id="JF20434" begin="300" fromJunction="J7" toJunction="J3" end="360" vehsPerHour="2.2724052109409176" departLane="free"/>
  <flow id="JF20435" begin="300" fromJunction="J7" toJunction="J0" end="360" vehsPerHour="71.265993547328" departLane="free"/>
  <flow id="JF20436" begin="300" fromJunction="J5" toJunction="J3" end="360" vehsPerHour="39.08652207543208" departLane="free"/>
  <flow id="JF20437" begin="300" fromJunction="J5" toJunction="J0" end="360" vehsPerHour="93.68577250660408" departLane="free"/>
  <flow id="JF20438" begin="300" fromJunction="J4" toJunction="J3" end="360" vehsPerHour="4.904134759306812" departLane="free"/>
  <flow id="JF20439" begin="300" fromJunction="J4" toJunction="J0" end="360" vehsPerHour="95.38378065547853" departLane="free"/>
  <flow id="JF20440" begin="360" fromJunction="J3" toJunction="J0" end="420" vehsPerHour="12.99531872032226" departLane="free"/>
  <flow id="JF20441" begin="360" fromJunction="J0" toJunction="J3" end="420" vehsPerHour="33.59646865543177" departLane="free"/>
  <flow id="JF20442" begin="360" fromJunction="J3" toJunction="J6" end="420" vehsPerHour="457.1528436148342" departLane="free"/>
  <flow id="JF20443" begin="360" fromJunction="J3" toJunction="J7" end="420" vehsPerHour="285.6376242696653" departLane="free"/>
  <flow id="JF20444" begin="360" fromJunction="J3" toJunction="J5" end="420" vehsPerHour="302.35243369483885" departLane="free"/>
  <flow id="JF20445" begin="360" fromJunction="J3" toJunction="J4" end="420" vehsPerHour="249.46635415722662" departLane="free"/>
  <flow id="JF20446" begin="360" fromJunction="J0" toJunction="J6" end="420" vehsPerHour="380.9192896025413" departLane="free"/>
  <flow id="JF20447" begin="360" fromJunction="J0" toJunction="J7" end="420" vehsPerHour="166.84871338785644" departLane="free"/>
  <flow id="JF20448" begin="360" fromJunction="J0" toJunction="J5" end="420" vehsPerHour="297.5897216839618" departLane="free"/>
  <flow id="JF20449" begin="360" fromJunction="J0" toJunction="J4" end="420" vehsPerHour="299.1546454674272" departLane="free"/>
  <flow id="JF20450" begin="360" fromJunction="J6" toJunction="J7" end="420" vehsPerHour="20.001874000559994" departLane="free"/>
  <flow id="JF20451" begin="360" fromJunction="J6" toJunction="J5" end="420" vehsPerHour="12.107681336011053" departLane="free"/>
  <flow id="JF20452" begin="360" fromJunction="J6" toJunction="J4" end="420" vehsPerHour="19.029500028712928" departLane="free"/>
  <flow id="JF20453" begin="360" fromJunction="J7" toJunction="J6" end="420" vehsPerHour="16.145872034703032" departLane="free"/>
  <flow id="JF20454" begin="360" fromJunction="J7" toJunction="J5" end="420" vehsPerHour="11.315670469633856" departLane="free"/>
  <flow id="JF20455" begin="360" fromJunction="J7" toJunction="J4" end="420" vehsPerHour="5.4767380246432635" departLane="free"/>
  <flow id="JF20456" begin="360" fromJunction="J5" toJunction="J6" end="420" vehsPerHour="33.17107266226707" departLane="free"/>
  <flow id="JF20457" begin="360" fromJunction="J5" toJunction="J7" end="420" vehsPerHour="16.090537795946066" departLane="free"/>
  <flow id="JF20458" begin="360" fromJunction="J5" toJunction="J4" end="420" vehsPerHour="2.6844550453863074" departLane="free"/>
  <flow id="JF20459" begin="360" fromJunction="J4" toJunction="J6" end="420" vehsPerHour="14.391972906220847" departLane="free"/>
  <flow id="JF20460" begin="360" fromJunction="J4" toJunction="J7" end="420" vehsPerHour="10.912347907913052" departLane="free"/>
  <flow id="JF20461" begin="360" fromJunction="J4" toJunction="J5" end="420" vehsPerHour="36.034892504363285" departLane="free"/>
  <flow id="JF20462" begin="360" fromJunction="J6" toJunction="J3" end="420" vehsPerHour="110.05150993338894" departLane="free"/>
  <flow id="JF20463" begin="360" fromJunction="J6" toJunction="J0" end="420" vehsPerHour="61.519435622177646" departLane="free"/>
  <flow id="JF20464" begin="360" fromJunction="J7" toJunction="J3" end="420" vehsPerHour="85.54279953780136" departLane="free"/>
  <flow id="JF20465" begin="360" fromJunction="J7" toJunction="J0" end="420" vehsPerHour="129.9969552961303" departLane="free"/>
  <flow id="JF20466" begin="360" fromJunction="J5" toJunction="J3" end="420" vehsPerHour="78.58581749071358" departLane="free"/>
  <flow id="JF20467" begin="360" fromJunction="J5" toJunction="J0" end="420" vehsPerHour="35.828329673384765" departLane="free"/>
  <flow id="JF20468" begin="360" fromJunction="J4" toJunction="J3" end="420" vehsPerHour="0.17128895051314091" departLane="free"/>
  <flow id="JF20469" begin="360" fromJunction="J4" toJunction="J0" end="420" vehsPerHour="89.89018697861438" departLane="free"/>
  <flow id="JF20470" begin="420" fromJunction="J3" toJunction="J0" end="480" vehsPerHour="48.39352044787664" departLane="free"/>
  <flow id="JF20471" begin="420" fromJunction="J0" toJunction="J3" end="480" vehsPerHour="43.826447413304834" departLane="free"/>
  <flow id="JF20472" begin="420" fromJunction="J3" toJunction="J6" end="480" vehsPerHour="212.35595393696312" departLane="free"/>
  <flow id="JF20473" begin="420" fromJunction="J3" toJunction="J7" end="480" vehsPerHour="450.69578199855414" departLane="free"/>
  <flow id="JF20474" begin="420" fromJunction="J3" toJunction="J5" end="480" vehsPerHour="406.6279000410919" departLane="free"/>
  <flow id="JF20475" begin="420" fromJunction="J3" toJunction="J4" end="480" vehsPerHour="452.3012172473324" departLane="free"/>
  <flow id="JF20476" begin="420" fromJunction="J0" toJunction="J6" end="480" vehsPerHour="252.0763098045069" departLane="free"/>
  <flow id="JF20477" begin="420" fromJunction="J0" toJunction="J7" end="480" vehsPerHour="492.3437736185102" departLane="free"/>
  <flow id="JF20478" begin="420" fromJunction="J0" toJunction="J5" end="480" vehsPerHour="478.24798890650544" departLane="free"/>
  <flow id="JF20479" begin="420" fromJunction="J0" toJunction="J4" end="480" vehsPerHour="370.75866412030535" departLane="free"/>
  <flow id="JF20480" begin="480" fromJunction="J3" toJunction="J0" end="540" vehsPerHour="14.202051968859122" departLane="free"/>
  <flow id="JF20481" begin="480" fromJunction="J0" toJunction="J3" end="540" vehsPerHour="1.4085568361371688" departLane="free"/>
  <flow id="JF20482" begin="480" fromJunction="J3" toJunction="J6" end="540" vehsPerHour="436.68385138327545" departLane="free"/>
  <flow id="JF20483" begin="480" fromJunction="J3" toJunction="J7" end="540" vehsPerHour="301.1332591872277" departLane="free"/>
  <flow id="JF20484" begin="480" fromJunction="J3" toJunction="J5" end="540" vehsPerHour="451.20977074294973" departLane="free"/>
  <flow id="JF20485" begin="480" fromJunction="J3" toJunction="J4" end="540" vehsPerHour="281.64490395635" departLane="free"/>
  <flow id="JF20486" begin="480" fromJunction="J0" toJunction="J6" end="540" vehsPerHour="287.7588784448852" departLane="free"/>
  <flow id="JF20487" begin="480" fromJunction="J0" toJunction="J7" end="540" vehsPerHour="376.23219777361174" departLane="free"/>
  <flow id="JF20488" begin="480" fromJunction="J0" toJunction="J5" end="540" vehsPerHour="77.03667470364353" departLane="free"/>
  <flow id="JF20489" begin="480" fromJunction="J0" toJunction="J4" end="540" vehsPerHour="515.0691374258453" departLane="free"/>
  <flow id="JF20490" begin="480" fromJunction="J6" toJunction="J7" end="540" vehsPerHour="13.40574001559511" departLane="free"/>
  <flow id="JF20491" begin="480" fromJunction="J6" toJunction="J5" end="540" vehsPerHour="2.954490148275025" departLane="free"/>
  <flow id="JF20492" begin="480" fromJunction="J6" toJunction="J4" end="540" vehsPerHour="15.484556860612978" departLane="free"/>
  <flow id="JF20493" begin="480" fromJunction="J7" toJunction="J6" end="540" vehsPerHour="13.725959338181793" departLane="free"/>
  <flow id="JF20494" begin="480" fromJunction="J7" toJunction="J5" end="540" vehsPerHour="34.18478430418182" departLane="free"/>
  <flow id="JF20495" begin="480" fromJunction="J7" toJunction="J4" end="540" vehsPerHour="29.39833621477893" departLane="free"/>
  <flow id="JF20496" begin="480" fromJunction="J5" toJunction="J6" end="540" vehsPerHour="34.412971914566775" departLane="free"/>
  <flow id="JF20497" begin="480" fromJunction="J5" toJunction="J7" end="540" vehsPerHour="44.044522890771084" departLane="free"/>
  <flow id="JF20498" begin="480" fromJunction="J5" toJunction="J4" end="540" vehsPerHour="25.443395759516523" departLane="free"/>
  <flow id="JF20499" begin="480" fromJunction="J4" toJunction="J6" end="540" vehsPerHour="33.9999704497495" departLane="free"/>
  <flow id="JF20500" begin="480" fromJunction="J4" toJunction="J7" end="540" vehsPerHour="51.52485633986468" departLane="free"/>
  <flow id="JF20501" begin="480" fromJunction="J4" toJunction="J5" end="540" vehsPerHour="46.53274100951951" departLane="free"/>
  <flow id="JF20502" begin="480" fromJunction="J6" toJunction="J3" end="540" vehsPerHour="69.11178000068479" departLane="free"/>
  <flow id="JF20503" begin="480" fromJunction="J6" toJunction="J0" end="540" vehsPerHour="68.70642019261501" departLane="free"/>
  <flow id="JF20504" begin="480" fromJunction="J7" toJunction="J3" end="540" vehsPerHour="13.448636285446588" departLane="free"/>
  <flow id="JF20505" begin="480" fromJunction="J7" toJunction="J0" end="540" vehsPerHour="104.72965385372191" departLane="free"/>
  <flow id="JF20506" begin="480" fromJunction="J5" toJunction="J3" end="540" vehsPerHour="44.34776772960393" departLane="free"/>
  <flow id="JF20507" begin="480" fromJunction="J5" toJunction="J0" end="540" vehsPerHour="69.82431600049766" departLane="free"/>
  <flow id="JF20508" begin="480" fromJunction="J4" toJunction="J3" end="540" vehsPerHour="45.37009550063598" departLane="free"/>
  <flow id="JF20509" begin="480" fromJunction="J4" toJunction="J0" end="540" vehsPerHour="19.67733180737968" departLane="free"/>
  <flow id="JF20510" begin="540" fromJunction="J3" toJunction="J0" end="600" vehsPerHour="2.630621188074942" departLane="free"/>
  <flow id="JF20511" begin="540" fromJunction="J0" toJunction="J3" end="600" vehsPerHour="30.01970832596458" departLane="free"/>
  <flow id="JF20512" begin="540" fromJunction="J3" toJunction="J6" end="600" vehsPerHour="500.1243953403905" departLane="free"/>
  <flow id="JF20513" begin="540" fromJunction="J3" toJunction="J7" end="600" vehsPerHour="106.36214814495557" departLane="free"/>
  <flow id="JF20514" begin="540" fromJunction="J3" toJunction="J5" end="600" vehsPerHour="188.59707829770883" departLane="free"/>
  <flow id="JF20515" begin="540" fromJunction="J3" toJunction="J4" end="600" vehsPerHour="13.116809391702565" departLane="free"/>
  <flow id="JF20516" begin="540" fromJunction="J0" toJunction="J6" end="600" vehsPerHour="428.761694685622" departLane="free"/>
  <flow id="JF20517" begin="540" fromJunction="J0" toJunction="J7" end="600" vehsPerHour="420.24925695203285" departLane="free"/>
  <flow id="JF20518" begin="540" fromJunction="J0" toJunction="J5" end="600" vehsPerHour="137.62794520012258" departLane="free"/>
  <flow id="JF20519" begin="540" fromJunction="J0" toJunction="J4" end="600" vehsPerHour="399.0854493848242" departLane="free"/>
  <flow id="JF20520" begin="540" fromJunction="J6" toJunction="J7" end="600" vehsPerHour="25.48926145091552" departLane="free"/>
  <flow id="JF20521" begin="540" fromJunction="J6" toJunction="J5" end="600" vehsPerHour="12.26912585160994" departLane="free"/>
  <flow id="JF20522" begin="540" fromJunction="J6" toJunction="J4" end="600" vehsPerHour="29.382895124472807" departLane="free"/>
  <flow id="JF20523" begin="540" fromJunction="J7" toJunction="J6" end="600" vehsPerHour="11.526704659745928" departLane="free"/>
  <flow id="JF20524" begin="540" fromJunction="J7" toJunction="J5" end="600" vehsPerHour="14.787982183683129" departLane="free"/>
  <flow id="JF20525" begin="540" fromJunction="J7" toJunction="J4" end="600" vehsPerHour="32.25603215379778" departLane="free"/>
  <flow id="JF20526" begin="540" fromJunction="J5" toJunction="J6" end="600" vehsPerHour="43.620589257982374" departLane="free"/>
  <flow id="JF20527" begin="540" fromJunction="J5" toJunction="J7" end="600" vehsPerHour="65.44901417015633" departLane="free"/>
  <flow id="JF20528" begin="540" fromJunction="J5" toJunction="J4" end="600" vehsPerHour="4.981647254500885" departLane="free"/>
  <flow id="JF20529" begin="540" fromJunction="J4" toJunction="J6" end="600" vehsPerHour="15.079796493662654" departLane="free"/>