<?xml version="1.0" encoding="UTF-8"?>
<routes xmlns:xsi="http://www.w3.org/2001/XMLSchema-instance" xsi:noNamespaceSchemaLocation="http://sumo.dlr.de/xsd/routes_file.xsd">
  <flow id="JF63600" begin="0" fromJunction="J11" toJunction="J10" end="3600" vehsPerHour="18.32"/>
  <flow id="JF63601" begin="0" fromJunction="J11" toJunction="J12" end="3600" vehsPerHour="18.32"/>
  <flow id="JF63602" begin="0" fromJunction="J11" toJunction="J13" end="3600" vehsPerHour="18.32"/>
  <flow id="JF63603" begin="0" fromJunction="J11" toJunction="J14" end="3600" vehsPerHour="18.32"/>
  <flow id="JF63604" begin="0" fromJunction="J11" toJunction="J15" end="3600" vehsPerHour="18.32"/>
  <flow id="JF63605" begin="0" fromJunction="J11" toJunction="J16" end="3600" vehsPerHour="18.32"/>
  <flow id="JF63606" begin="0" fromJunction="J11" toJunction="J17" end="3600" vehsPerHour="18.32"/>
  <flow id="JF63607" begin="0" fromJunction="J11" toJunction="J18" end="3600" vehsPerHour="18.32"/>
  <flow id="JF63608" begin="0" fromJunction="J11" toJunction="J19" end="3600" vehsPerHour="18.32"/>
  <flow id="JF63609" begin="0" fromJunction="J11" toJunction="J20" end="3600" vehsPerHour="18.32"/>
  <flow id="JF63610" begin="0" fromJunction="J11" toJunction="J21" end="3600" vehsPerHour="18.32"/>
  <flow id="JF63611" begin="0" fromJunction="J11" toJunction="J22" end="3600" vehsPerHour="18.32"/>
  <flow id="JF63612" begin="0" fromJunction="J11" toJunction="J7" end="3600" vehsPerHour="18.32"/>
  <flow id="JF63613" begin="0" fromJunction="J11" toJunction="J8" end="3600" vehsPerHour="18.32"/>
  <flow id="JF63614" begin="0" fromJunction="J11" toJunction="J9" end="3600" vehsPerHour="18.32"/>
  <flow id="JF63615" begin="0" fromJunction="J12" toJunction="J10" end="3600" vehsPerHour="18.32"/>
  <flow id="JF63616" begin="0" fromJunction="J12" toJunction="J11" end="3600" vehsPerHour="18.32"/>
  <flow id="JF63617" begin="0" fromJunction="J12" toJunction="J13" end="3600" vehsPerHour="18.32"/>
  <flow id="JF63618" begin="0" fromJunction="J12" toJunction="J14" end="3600" vehsPerHour="18.32"/>
  <flow id="JF63619" begin="0" fromJunction="J12" toJunction="J15" end="3600" vehsPerHour="18.32"/>
  <flow id="JF63620" begin="0" fromJunction="J12" toJunction="J16" end="3600" vehsPerHour="18.32"/>
  <flow id="JF63621" begin="0" fromJunction="J12" toJunction="J17" end="3600" vehsPerHour="18.32"/>
  <flow id="JF63622" begin="0" fromJunction="J12" toJunction="J18" end="3600" vehsPerHour="18.32"/>
  <flow id="JF63623" begin="0" fromJunction="J12" toJunction="J19" end="3600" vehsPerHour="18.32"/>
  <flow id="JF63624" begin="0" fromJunction="J12" toJunction="J20" end="3600" vehsPerHour="18.32"/>
  <flow id="JF63625" begin="0" fromJunction="J12" toJunction="J21" end="3600" vehsPerHour="18.32"/>
  <flow id="JF63626" begin="0" fromJunction="J12" toJunction="J22" end="3600" vehsPerHour="18.32"/>
  <flow id="JF63627" begin="0" fromJunction="J12" toJunction="J7" end="3600" vehsPerHour="18.32"/>
  <flow id="JF63628" begin="0" fromJunction="J12" toJunction="J8" end="3600" vehsPerHour="18.32"/>
  <flow id="JF63629" begin="0" fromJunction="J12" toJunction="J9" end="3600" vehsPerHour="18.32"/>
  <flow id="JF63630" begin="0" fromJunction="J13" toJunction="J10" end="3600" vehsPerHour="18.32"/>
  <flow id="JF63631" begin="0" fromJunction="J13" toJunction="J11" end="3600" vehsPerHour="18.32"/>
  <flow id="JF63632" begin="0" fromJunction="J13" toJunction="J12" end="3600" vehsPerHour="18.32"/>
  <flow id="JF63633" begin="0" fromJunction="J13" toJunction="J14" end="3600" vehsPerHour="18.32"/>
  <flow id="JF63634" begin="0" fromJunction="J13" toJunction="J15" end="3600" vehsPerHour="18.32"/>
  <flow id="JF63635" begin="0" fromJunction="J13" toJunction="J16" end="3600" vehsPerHour="18.32"/>
  <flow id="JF63636" begin="0" fromJunction="J13" toJunction="J17" end="3600" vehsPerHour="18.32"/>
  <flow id="JF63637" begin="0" fromJunction="J13" toJunction="J18" end="3600" vehsPerHour="18.32"/>
  <flow id="JF63638" begin="0" fromJunction="J13" toJunction="J19" end="3600" vehsPerHour="18.32"/>
  <flow id="JF63639" begin="0" fromJunction="J13" toJunction="J20" end="3600" vehsPerHour="18.32"/>
  <flow id="JF63640" begin="0" fromJunction="J13" toJunction="J21" end="3600" vehsPerHour="18.32"/>
  <flow id="JF63641" begin="0" fromJunction="J13" toJunction="J22" end="3600" vehsPerHour="18.32"/>
  <flow id="JF63642" begin="0" fromJunction="J13" toJunction="J7" end="3600" vehsPerHour="18.32"/>
  <flow id="JF63643" begin="0" fromJunction="J13" toJunction="J8" end="3600" vehsPerHour="18.32"/>
  <flow id="JF63644" begin="0" fromJunction="J13" toJunction="J9" end="3600" vehsPerHour="18.32"/>
  <flow id="JF63645" begin="0" fromJunction="J14" toJunction="J10" end="3600" vehsPerHour="18.32"/>
  <flow id="JF63646" begin="0" fromJunction="J14" toJunction="J11" end="3600" vehsPerHour="18.32"/>
  <flow id="JF63647" begin="0" fromJunction="J14" toJunction="J12" end="3600" vehsPerHour="18.32"/>
  <flow id="JF63648" begin="0" fromJunction="J14" toJunction="J13" end="3600" vehsPerHour="18.32"/>
  <flow id="JF63649" begin="0" fromJunction="J14" toJunction="J15" end="3600" vehsPerHour="18.32"/>
  <flow id="JF63650" begin="0" fromJunction="J14" toJunction="J16" end="3600" vehsPerHour="18.32"/>
  <flow id="JF63651" begin="0" fromJunction="J14" toJunction="J17" end="3600" vehsPerHour="18.32"/>
  <flow id="JF63652" begin="0" fromJunction="J14" toJunction="J18" end="3600" vehsPerHour="18.32"/>
  <flow id="JF63653" begin="0" fromJunction="J14" toJunction="J19" end="3600" vehsPerHour="18.32"/>
  <flow id="JF63654" begin="0" fromJunction="J14" toJunction="J20" end="3600" vehsPerHour="18.32"/>
  <flow id="JF63655" begin="0" fromJunction="J14" toJunction="J21" end="3600" vehsPerHour="18.32"/>
  <flow id="JF63656" begin="0" fromJunction="J14" toJunction="J22" end="3600" vehsPerHour="18.32"/>
  <flow id="JF63657" begin="0" fromJunction="J14" toJunction="J7" end="3600" vehsPerHour="18.32"/>
  <flow id="JF63658" begin="0" fromJunction="J14" toJunction="J8" end="3600" vehsPerHour="18.32"/>
  <flow id="JF63659" begin="0" fromJunction="J14" toJunction="J9" end="3600" vehsPerHour="18.32"/>
  <flow id="JF63660" begin="0" fromJunction="J15" toJunction="J10" end="3600" vehsPerHour="18.32"/>
  <flow id="JF63661" begin="0" fromJunction="J15" toJunction="J11" end="3600" vehsPerHour="18.32"/>
  <flow id="JF63662" begin="0" fromJunction="J15" toJunction="J12" end="3600" vehsPerHour="18.32"/>
  <flow id="JF63663" begin="0" fromJunction="J15" toJunction="J13" end="3600" vehsPerHour="18.32"/>
  <flow id="JF63664" begin="0" fromJunction="J15" toJunction="J14" end="3600" vehsPerHour="18.32"/>
  <flow id="JF63665" begin="0" fromJunction="J15" toJunction="J16" end="3600" vehsPerHour="18.32"/>
  <flow id="JF63666" begin="0" fromJunction="J15" toJunction="J17" end="3600" vehsPerHour="18.32"/>
  <flow id="JF63667" begin="0" fromJunction="J15" toJunction="J18" end="3600" vehsPerHour="18.32"/>
  <flow id="JF63668" begin="0" fromJunction="J15" toJunction="J19" end="3600" vehsPerHour="18.32"/>
  <flow id="JF63669" begin="0" fromJunction="J15" toJunction="J20" end="3600" vehsPerHour="18.32"/>
  <flow id="JF63670" begin="0" fromJunction="J15" toJunction="J21" end="3600" vehsPerHour="18.32"/>
  <flow id="JF63671" begin="0" fromJunction="J15" toJunction="J22" end="3600" vehsPerHour="18.32"/>
  <flow id="JF63672" begin="0" fromJunction="J15" toJunction="J7" end="3600" vehsPerHour="18.32"/>
  <flow id="JF63673" begin="0" fromJunction="J15" toJunction="J8" end="3600" vehsPerHour="18.32"/>
  <flow id="JF63674" begin="0" fromJunction="J15" toJunction="J9" end="3600" vehsPerHour="18.32"/>
  <flow id="JF63675" begin="0" fromJunction="J16" toJunction="J10" end="3600" vehsPerHour="18.32"/>
  <flow id="JF63676" begin="0" fromJunction="J16" toJunction="J11" end="3600" vehsPerHour="18.32"/>
  <flow id="JF63677" begin="0" fromJunction="J16" toJunction="J12" end="3600" vehsPerHour="18.32"/>
  <flow id="JF63678" begin="0" fromJunction="J16" toJunction="J13" end="3600" vehsPerHour="18.32"/>
  <flow id="JF63679" begin="0" fromJunction="J16" toJunction="J14" end="3600" vehsPerHour="18.32"/>
  <flow id="JF63680" begin="0" fromJunction="J16" toJunction="J15" end="3600" vehsPerHour="18.32"/>
  <flow id="JF63681" begin="0" fromJunction="J16" toJunction="J17" end="3600" vehsPerHour="18.32"/>
  <flow id="JF63682" begin="0" fromJunction="J16" toJunction="J18" end="3600" vehsPerHour="18.32"/>
  <flow id="JF63683" begin="0" fromJunction="J16" toJunction="J19" end="3600" vehsPerHour="18.32"/>
  <flow id="JF63684" begin="0" fromJunction="J16" toJunction="J20" end="3600" vehsPerHour="18.32"/>
  <flow id="JF63685" begin="0" fromJunction="J16" toJunction="J21" end="3600" vehsPerHour="18.32"/>
  <flow id="JF63686" begin="0" fromJunction="J16" toJunction="J22" end="3600" vehsPerHour="18.32"/>
  <flow id="JF63687" begin="0" fromJunction="J16" toJunction="J7" end="3600" vehsPerHour="18.32"/>
  <flow id="JF63688" begin="0" fromJunction="J16" toJunction="J8" end="3600" vehsPerHour="18.32"/>
  <flow id="JF63689" begin="0" fromJunction="J16" toJunction="J9" end="3600" vehsPerHour="18.32"/>
  <flow id="JF63690" begin="0" fromJunction="J17" toJunction="J10" end="3600" vehsPerHour="18.32"/>
  <flow id="JF63691" begin="0" fromJunction="J17" toJunction="J11" end="3600" vehsPerHour="18.32"/>
  <flow id="JF63692" begin="0" fromJunction="J17" toJunction="J12" end="3600" vehsPerHour="18.32"/>
  <flow id="JF63693" begin="0" fromJunction="J17" toJunction="J13" end="3600" vehsPerHour="18.32"/>
  <flow id="JF63694" begin="0" fromJunction="J17" toJunction="J14" end="3600" vehsPerHour="18.32"/>
  <flow id="JF63695" begin="0" fromJunction="J17" toJunction="J15" end="3600" vehsPerHour="18.32"/>
  <flow id="JF63696" begin="0" fromJunction="J17" toJunction="J16" end="3600" vehsPerHour="18.32"/>
  <flow id="JF63697" begin="0" fromJunction="J17" toJunction="J18" end="3600" vehsPerHour="18.32"/>
  <flow id="JF63698" begin="0" fromJunction="J17" toJunction="J19" end="3600" vehsPerHour="18.32"/>
  <flow id="JF63699" begin="0" fromJunction="J17" toJunction="J20" end="3600" vehsPerHour="18.32"/>
  <flow id="JF63700" begin="0" fromJunction="J17" toJunction="J21" end="3600" vehsPerHour="18.32"/>
  <flow id="JF63701" begin="0" fromJunction="J17" toJunction="J22" end="3600" vehsPerHour="18.32"/>
  <flow id="JF63702" begin="0" fromJunction="J17" toJunction="J7" end="3600" vehsPerHour="18.32"/>
  <flow id="JF63703" begin="0" fromJunction="J17" toJunction="J8" end="3600" vehsPerHour="18.32"/>
  <flow id="JF63704" begin="0" fromJunction="J17" toJunction="J9" end="3600" vehsPerHour="18.32"/>
  <flow id="JF63705" begin="0" fromJunction="J18" toJunction="J10" end="3600" vehsPerHour="18.32"/>
  <flow id="JF63706" begin="0" fromJunction="J18" toJunction="J11" end="3600" vehsPerHour="18.32"/>
  <flow id="JF63707" begin="0" fromJunction="J18" toJunction="J12" end="3600" vehsPerHour="18.32"/>
  <flow id="JF63708" begin="0" fromJunction="J18" toJunction="J13" end="3600" vehsPerHour="18.32"/>
  <flow id="JF63709" begin="0" fromJunction="J18" toJunction="J14" end="3600" vehsPerHour="18.32"/>
  <flow id="JF63710" begin="0" fromJunction="J18" toJunction="J15" end="3600" vehsPerHour="18.32"/>
  <flow id="JF63711" begin="0" fromJunction="J18" toJunction="J16" end="3600" vehsPerHour="18.32"/>
  <flow id="JF63712" begin="0" fromJunction="J18" toJunction="J17" end="3600" vehsPerHour="18.32"/>
  <flow id="JF63713" begin="0" fromJunction="J18" toJunction="J19" end="3600" vehsPerHour="18.32"/>
  <flow id="JF63714" begin="0" fromJunction="J18" toJunction="J20" end="3600" vehsPerHour="18.32"/>
  <flow id="JF63715" begin="0" fromJunction="J18" toJunction="J21" end="3600" vehsPerHour="18.32"/>
  <flow id="JF63716" begin="0" fromJunction="J18" toJunction="J22" end="3600" vehsPerHour="18.32"/>
  <flow id="JF63717" begin="0" fromJunction="J18" toJunction="J7" end="3600" vehsPerHour="18.32"/>
  <flow id="JF63718" begin="0" fromJunction="J18" toJunction="J8" end="3600" vehsPerHour="18.32"/>
  <flow id="JF63719" begin="0" fromJunction="J18" toJunction="J9" end="3600" vehsPerHour="18.32"/>
  <flow id="JF63720" begin="0" fromJunction="J19" toJunction="J20" end="3600" vehsPerHour="305.33333333333337"/>
  <flow id="JF63721" begin="0" fromJunction="J19" toJunction="J10" end="3600" vehsPerHour="76.33333333333334"/>
  <flow id="JF63722" begin="0" fromJunction="J19" toJunction="J11" end="3600" vehsPerHour="76.33333333333334"/>
  <flow id="JF63723" begin="0" fromJunction="J19" toJunction="J12" end="3600" vehsPerHour="76.33333333333334"/>
  <flow id="JF63724" begin="0" fromJunction="J19" toJunction="J13" end="3600" vehsPerHour="76.33333333333334"/>
  <flow id="JF63725" begin="0" fromJunction="J19" toJunction="J14" end="3600" vehsPerHour="76.33333333333334"/>
  <flow id="JF63726" begin="0" fromJunction="J19" toJunction="J15" end="3600" vehsPerHour="76.33333333333334"/>
  <flow id="JF63727" begin="0" fromJunction="J19" toJunction="J16" end="3600" vehsPerHour="76.33333333333334"/>
  <flow id="JF63728" begin="0" fromJunction="J19" toJunction="J17" end="3600" vehsPerHour="76.33333333333334"/>
  <flow id="JF63729" begin="0" fromJunction="J19" toJunction="J18" end="3600" vehsPerHour="76.33333333333334"/>
  <flow id="JF63730" begin="0" fromJunction="J19" toJunction="J21" end="3600" vehsPerHour="76.33333333333334"/>
  <flow id="JF63731" begin="0" fromJunction="J19" toJunction="J22" end="3600" vehsPerHour="76.33333333333334"/>
  <flow id="JF63732" begin="0" fromJunction="J19" toJunction="J7" end="3600" vehsPerHour="76.33333333333334"/>
  <flow id="JF63733" begin="0" fromJunction="J19" toJunction="J8" end="3600" vehsPerHour="76.33333333333334"/>
  <flow id="JF63734" begin="0" fromJunction="J19" toJunction="J9" end="3600" vehsPerHour="76.33333333333334"/>
  <flow id="JF63735" begin="0" fromJunction="J20" toJunction="J10" end="3600" vehsPerHour="18.32"/>
  <flow id="JF63736" begin="0" fromJunction="J20" toJunction="J11" end="3600" vehsPerHour="18.32"/>
  <flow id="JF63737" begin="0" fromJunction="J20" toJunction="J12" end="3600" vehsPerHour="18.32"/>
  <flow id="JF63738" begin="0" fromJunction="J20" toJunction="J13" end="3600" vehsPerHour="18.32"/>
  <flow id="JF63739" begin="0" fromJunction="J20" toJunction="J14" end="3600" vehsPerHour="18.32"/>
  <flow id="JF63740" begin="0" fromJunction="J20" toJunction="J15" end="3600" vehsPerHour="18.32"/>
  <flow id="JF63741" begin="0" fromJunction="J20" toJunction="J16" end="3600" vehsPerHour="18.32"/>
  <flow id="JF63742" begin="0" fromJunction="J20" toJunction="J17" end="3600" vehsPerHour="18.32"/>
  <flow id="JF63743" begin="0" fromJunction="J20" toJunction="J18" end="3600" vehsPerHour="18.32"/>
  <flow id="JF63744" begin="0" fromJunction="J20" toJunction="J19" end="3600" vehsPerHour="18.32"/>
  <flow id="JF63745" begin="0" fromJunction="J20" toJunction="J21" end="3600" vehsPerHour="18.32"/>
  <flow id="JF63746" begin="0" fromJunction="J20" toJunction="J22" end="3600" vehsPerHour="18.32"/>
  <flow id="JF63747" begin="0" fromJunction="J20" toJunction="J7" end="3600" vehsPerHour="18.32"/>
  <flow id="JF63748" begin="0" fromJunction="J20" toJunction="J8" end="3600" vehsPerHour="18.32"/>
  <flow id="JF63749" begin="0" fromJunction="J20" toJunction="J9" end="3600" vehsPerHour="18.32"/>
  <flow id="JF63750" begin="0" fromJunction="J21" toJunction="J10" end="3600" vehsPerHour="18.32"/>
  <flow id="JF63751" begin="0" fromJunction="J21" toJunction="J11" end="3600" vehsPerHour="18.32"/>
  <flow id="JF63752" begin="0" fromJunction="J21" toJunction="J12" end="3600" vehsPerHour="18.32"/>
  <flow id="JF63753" begin="0" fromJunction="J21" toJunction="J13" end="3600" vehsPerHour="18.32"/>
  <flow id="JF63754" begin="0" fromJunction="J21" toJunction="J14" end="3600" vehsPerHour="18.32"/>
  <flow id="JF63755" begin="0" fromJunction="J21" toJunction="J15" end="3600" vehsPerHour="18.32"/>
  <flow id="JF63756" begin="0" fromJunction="J21" toJunction="J16" end="3600" vehsPerHour="18.32"/>
  <flow id="JF63757" begin="0" fromJunction="J21" toJunction="J17" end="3600" vehsPerHour="18.32"/>
  <flow id="JF63758" begin="0" fromJunction="J21" toJunction="J18" end="3600" vehsPerHour="18.32"/>
  <flow id="JF63759" begin="0" fromJunction="J21" toJunction="J19" end="3600" vehsPerHour="18.32"/>
  <flow id="JF63760" begin="0" fromJunction="J21" toJunction="J20" end="3600" vehsPerHour="18.32"/>
  <flow id="JF63761" begin="0" fromJunction="J21" toJunction="J22" end="3600" vehsPerHour="18.32"/>
  <flow id="JF63762" begin="0" fromJunction="J21" toJunction="J7" end="3600" vehsPerHour="18.32"/>
  <flow id="JF63763" begin="0" fromJunction="J21" toJunction="J8" end="3600" vehsPerHour="18.32"/>
  <flow id="JF63764" begin="0" fromJunction="J21" toJunction="J9" end="3600" vehsPerHour="18.32"/>
  <flow id="JF63765" begin="0" fromJunction="J22" toJunction="J10" end="3600" vehsPerHour="18.32"/>
  <flow id="JF63766" begin="0" fromJunction="J22" toJunction="J11" end="3600" vehsPerHour="18.32"/>
  <flow id="JF63767" begin="0" fromJunction="J22" toJunction="J12" end="3600" vehsPerHour="18.32"/>
  <flow id="JF63768" begin="0" fromJunction="J22" toJunction="J13" end="3600" vehsPerHour="18.32"/>
  <flow id="JF63769" begin="0" fromJunction="J22" toJunction="J14" end="3600" vehsPerHour="18.32"/>
  <flow id="JF63770" begin="0" fromJunction="J22" toJunction="J15" end="3600" vehsPerHour="18.32"/>
  <flow id="JF63771" begin="0" fromJunction="J22" toJunction="J16" end="3600" vehsPerHour="18.32"/>
  <flow id="JF63772" begin="0" fromJunction="J22" toJunction="J17" end="3600" vehsPerHour="18.32"/>
  <flow id="JF63773" begin="0" fromJunction="J22" toJunction="J18" end="3600" vehsPerHour="18.32"/>
  <flow id="JF63774" begin="0" fromJunction="J22" toJunction="J19" end="3600" vehsPerHour="18.32"/>
  <flow id="JF63775" begin="0" fromJunction="J22" toJunction="J20" end="3600" vehsPerHour="18.32"/>
  <flow id="JF63776" begin="0" fromJunction="J22" toJunction="J21" end="3600" vehsPerHour="18.32"/>
  <flow id="JF63777" begin="0" fromJunction="J22" toJunction="J7" end="3600" vehsPerHour="18.32"/>
  <flow id="JF63778" begin="0" fromJunction="J22" toJunction="J8" end="3600" vehsPerHour="18.32"/>
  <flow id="JF63779" begin="0" fromJunction="J22" toJunction="J9" end="3600" vehsPerHour="18.32"/>
  <flow id="JF63780" begin="0" fromJunction="J8" toJunction="J10" end="3600" vehsPerHour="36.64"/>
  <flow id="JF63781" begin="0" fromJunction="J8" toJunction="J11" end="3600" vehsPerHour="36.64"/>
  <flow id="JF63782" begin="0" fromJunction="J8" toJunction="J12" end="3600" vehsPerHour="36.64"/>
  <flow id="JF63783" begin="0" fromJunction="J8" toJunction="J13" end="3600" vehsPerHour="36.64"/>
  <flow id="JF63784" begin="0" fromJunction="J8" toJunction="J14" end="3600" vehsPerHour="36.64"/>
  <flow id="JF63785" begin="0" fromJunction="J8" toJunction="J15" end="3600" vehsPerHour="36.64"/>
  <flow id="JF63786" begin="0" fromJunction="J8" toJunction="J16" end="3600" vehsPerHour="36.64"/>
  <flow id="JF63787" begin="0" fromJunction="J8" toJunction="J17" end="3600" vehsPerHour="36.64"/>
  <flow id="JF63788" begin="0" fromJunction="J8" toJunction="J18" end="3600" vehsPerHour="36.64"/>
  <flow id="JF63789" begin="0" fromJunction="J8" toJunction="J19" end="3600" vehsPerHour="36.64"/>
  <flow id="JF63790" begin="0" fromJunction="J8" toJunction="J20" end="3600" vehsPerHour="36.64"/>
  <flow id="JF63791" begin="0" fromJunction="J8" toJunction="J21" end="3600" vehsPerHour="36.64"/>
  <flow id="JF63792" begin="0" fromJunction="J8" toJunction="J22" end="3600" vehsPerHour="36.64"/>
  <flow id="JF63793" begin="0" fromJunction="J8" toJunction="J7" end="3600" vehsPerHour="36.64"/>
  <flow id="JF63794" begin="0" fromJunction="J8" toJunction="J9" end="3600" vehsPerHour="36.64"/>
  <flow id="JF63795" begin="0" fromJunction="J9" toJunction="J10" end="3600" vehsPerHour="18.32"/>
  <flow id="JF63796" begin="0" fromJunction="J9" toJunction="J11" end="3600" vehsPerHour="18.32"/>
  <flow id="JF63797" begin="0" fromJunction="J9" toJunction="J12" end="3600" vehsPerHour="18.32"/>
  <flow id="JF63798" begin="0" fromJunction="J9" toJunction="J13" end="3600" vehsPerHour="18.32"/>
  <flow id="JF63799" begin="0" fromJunction="J9" toJunction="J14" end="3600" vehsPerHour="18.32"/>
  <flow id="JF63800" begin="0" fromJunction="J9" toJunction="J15" end="3600" vehsPerHour="18.32"/>
  <flow id="JF63801" begin="0" fromJunction="J9" toJunction="J16" end="3600" vehsPerHour="18.32"/>
  <flow id="JF63802" begin="0" fromJunction="J9" toJunction="J17" end="3600" vehsPerHour="18.32"/>
  <flow id="JF63803" begin="0" fromJunction="J9" toJunction="J18" end="3600" vehsPerHour="18.32"/>
  <flow id="JF63804" begin="0" fromJunction="J9" toJunction="J19" end="3600" vehsPerHour="18.32"/>
  <flow id="JF63805" begin="0" fromJunction="J9" toJunction="J20" end="3600" vehsPerHour="18.32"/>
  <flow id="JF63806" begin="0" fromJunction="J9" toJunction="J21" end="3600" vehsPerHour="18.32"/>
  <flow id="JF63807" begin="0" fromJunction="J9" toJunction="J22" end="3600" vehsPerHour="18.32"/>
  <flow id="JF63808" begin="0" fromJunction="J9" toJunction="J7" end="3600" vehsPerHour="18.32"/>
  <flow id="JF63809" begin="0" fromJunction="J9" toJunction="J8" end="3600" vehsPerHour="18.32"/>
  <flow id="JF63810" begin="0" fromJunction="J10" toJunction="J11" end="3600" vehsPerHour="18.32"/>
  <flow id="JF63811" begin="0" fromJunction="J10" toJunction="J12" end="3600" vehsPerHour="18.32"/>
  <flow id="JF63812" begin="0" fromJunction="J10" toJunction="J13" end="3600" vehsPerHour="18.32"/>
  <flow id="JF63813" begin="0" fromJunction="J10" toJunction="J14" end="3600" vehsPerHour="18.32"/>
  <flow id="JF63814" begin="0" fromJunction="J10" toJunction="J15" end="3600" vehsPerHour="18.32"/>
  <flow id="JF63815" begin="0" fromJunction="J10" toJunction="J16" end="3600" vehsPerHour="18.32"/>
  <flow id="JF63816" begin="0" fromJunction="J10" toJunction="J17" end="3600" vehsPerHour="18.32"/>
  <flow id="JF63817" begin="0" fromJunction="J10" toJunction="J18" end="3600" vehsPerHour="18.32"/>
  <flow id="JF63818" begin="0" fromJunction="J10" toJunction="J19" end="3600" vehsPerHour="18.32"/>
  <flow id="JF63819" begin="0" fromJunction="J10" toJunction="J20" end="3600" vehsPerHour="18.32"/>
  <flow id="JF63820" begin="0" fromJunction="J10" toJunction="J21" end="3600" vehsPerHour="18.32"/>
  <flow id="JF63821" begin="0" fromJunction="J10" toJunction="J22" end="3600" vehsPerHour="18.32"/>
  <flow id="JF63822" begin="0" fromJunction="J10" toJunction="J7" end="3600" vehsPerHour="18.32"/>
  <flow id="JF63823" begin="0" fromJunction="J10" toJunction="J8" end="3600" vehsPerHour="18.32"/>
  <flow id="JF63824" begin="0" fromJunction="J10" toJunction="J9" end="3600" vehsPerHour="18.32"/>
  <flow id="JF63825" begin="0" fromJunction="J7" toJunction="J10" end="3600" vehsPerHour="36.64"/>
  <flow id="JF63826" begin="0" fromJunction="J7" toJunction="J11" end="3600" vehsPerHour="36.64"/>
  <flow id="JF63827" begin="0" fromJunction="J7" toJunction="J12" end="3600" vehsPerHour="36.64"/>
  <flow id="JF63828" begin="0" fromJunction="J7" toJunction="J13" end="3600" vehsPerHour="36.64"/>
  <flow id="JF63829" begin="0" fromJunction="J7" toJunction="J14" end="3600" vehsPerHour="36.64"/>
  <flow id="JF63830" begin="0" fromJunction="J7" toJunction="J15" end="3600" vehsPerHour="36.64"/>
  <flow id="JF63831" begin="0" fromJunction="J7" toJunction="J16" end="3600" vehsPerHour="36.64"/>
  <flow id="JF63832" begin="0" fromJunction="J7" toJunction="J17" end="3600" vehsPerHour="36.64"/>
  <flow id="JF63833" begin="0" fromJunction="J7" toJunction="J18" end="3600" vehsPerHour="36.64"/>
  <flow id="JF63834" begin="0" fromJunction="J7" toJunction="J19" end="3600" vehsPerHour="36.64"/>
  <flow id="JF63835" begin="0" fromJunction="J7" toJunction="J20" end="3600" vehsPerHour="36.64"/>
  <flow id="JF63836" begin="0" fromJunction="J7" toJunction="J21" end="3600" vehsPerHour="36.64"/>
  <flow id="JF63837" begin="0" fromJunction="J7" toJunction="J22" end="3600" vehsPerHour="36.64"/>
  <flow id="JF63838" begin="0" fromJunction="J7" toJunction="J8" end="3600" vehsPerHour="36.64"/>
  <flow id="JF63839" begin="0" fromJunction="J7" toJunction="J9" end="3600" vehsPerHour="36.64"/>
  <flow id="JF63840" begin="10000" fromJunction="J11" toJunction="J10" end="13600" vehsPerHour="18.32"/>
  <flow id="JF63841" begin="10000" fromJunction="J11" toJunction="J12" end="13600" vehsPerHour="18.32"/>
  <flow id="JF63842" begin="10000" fromJunction="J11" toJunction="J13" end="13600" vehsPerHour="18.32"/>
  <flow id="JF63843" begin="10000" fromJunction="J11" toJunction="J14" end="13600" vehsPerHour="18.32"/>
  <flow id="JF63844" begin="10000" fromJunction="J11" toJunction="J15" end="13600" vehsPerHour="18.32"/>
  <flow id="JF63845" begin="10000" fromJunction="J11" toJunction="J16" end="13600" vehsPerHour="18.32"/>
  <flow id="JF63846" begin="10000" fromJunction="J11" toJunction="J17" end="13600" vehsPerHour="18.32"/>
  <flow id="JF63847" begin="10000" fromJunction="J11" toJunction="J18" end="13600" vehsPerHour="18.32"/>
  <flow id="JF63848" begin="10000" fromJunction="J11" toJunction="J19" end="13600" vehsPerHour="18.32"/>
  <flow id="JF63849" begin="10000" fromJunction="J11" toJunction="J20" end="13600" vehsPerHour="18.32"/>
  <flow id="JF63850" begin="10000" fromJunction="J11" toJunction="J21" end="13600" vehsPerHour="18.32"/>
  <flow id="JF63851" begin="10000" fromJunction="J11" toJunction="J22" end="13600" vehsPerHour="18.32"/>
  <flow id="JF63852" begin="10000" fromJunction="J11" toJunction="J7" end="13600" vehsPerHour="18.32"/>
  <flow id="JF63853" begin="10000" fromJunction="J11" toJunction="J8" end="13600" vehsPerHour="18.32"/>
  <flow id="JF63854" begin="10000" fromJunction="J11" toJunction="J9" end="13600" vehsPerHour="18.32"/>
  <flow id="JF63855" begin="10000" fromJunction="J12" toJunction="J10" end="13600" vehsPerHour="18.32"/>
  <flow id="JF63856" begin="10000" fromJunction="J12" toJunction="J11" end="13600" vehsPerHour="18.32"/>
  <flow id="JF63857" begin="10000" fromJunction="J12" toJunction="J13" end="13600" vehsPerHour="18.32"/>
  <flow id="JF63858" begin="10000" fromJunction="J12" toJunction="J14" end="13600" vehsPerHour="18.32"/>
  <flow id="JF63859" begin="10000" fromJunction="J12" toJunction="J15" end="13600" vehsPerHour="18.32"/>
  <flow id="JF63860" begin="10000" fromJunction="J12" toJunction="J16" end="13600" vehsPerHour="18.32"/>
  <flow id="JF63861" begin="10000" fromJunction="J12" toJunction="J17" end="13600" vehsPerHour="18.32"/>
  <flow id="JF63862" begin="10000" fromJunction="J12" toJunction="J18" end="13600" vehsPerHour="18.32"/>
  <flow id="JF63863" begin="10000" fromJunction="J12" toJunction="J19" end="13600" vehsPerHour="18.32"/>
  <flow id="JF63864" begin="10000" fromJunction="J12" toJunction="J20" end="13600" vehsPerHour="18.32"/>
  <flow id="JF63865" begin="10000" fromJunction="J12" toJunction="J21" end="13600" vehsPerHour="18.32"/>
  <flow id="JF63866" begin="10000" fromJunction="J12" toJunction="J22" end="13600" vehsPerHour="18.32"/>
  <flow id="JF63867" begin="10000" fromJunction="J12" toJunction="J7" end="13600" vehsPerHour="18.32"/>
  <flow id="JF63868" begin="10000" fromJunction="J12" toJunction="J8" end="13600" vehsPerHour="18.32"/>
  <flow id="JF63869" begin="10000" fromJunction="J12" toJunction="J9" end="13600" vehsPerHour="18.32"/>
  <flow id="JF63870" begin="10000" fromJunction="J13" toJunction="J10" end="13600" vehsPerHour="18.32"/>
  <flow id="JF63871" begin="10000" fromJunction="J13" toJunction="J11" end="13600" vehsPerHour="18.32"/>
  <flow id="JF63872" begin="10000" fromJunction="J13" toJunction="J12" end="13600" vehsPerHour="18.32"/>
  <flow id="JF63873" begin="10000" fromJunction="J13" toJunction="J14" end="13600" vehsPerHour="18.32"/>
  <flow id="JF63874" begin="10000" fromJunction="J13" toJunction="J15" end="13600" vehsPerHour="18.32"/>
  <flow id="JF63875" begin="10000" fromJunction="J13" toJunction="J16" end="13600" vehsPerHour="18.32"/>
  <flow id="JF63876" begin="10000" fromJunction="J13" toJunction="J17" end="13600" vehsPerHour="18.32"/>
  <flow id="JF63877" begin="10000" fromJunction="J13" toJunction="J18" end="13600" vehsPerHour="18.32"/>
  <flow id="JF63878" begin="10000" fromJunction="J13" toJunction="J19" end="13600" vehsPerHour="18.32"/>
  <flow id="JF63879" begin="10000" fromJunction="J13" toJunction="J20" end="13600" vehsPerHour="18.32"/>
  <flow id="JF63880" begin="10000" fromJunction="J13" toJunction="J21" end="13600" vehsPerHour="18.32"/>
  <flow id="JF63881" begin="10000" fromJunction="J13" toJunction="J22" end="13600" vehsPerHour="18.32"/>
  <flow id="JF63882" begin="10000" fromJunction="J13" toJunction="J7" end="13600" vehsPerHour="18.32"/>
  <flow id="JF63883" begin="10000" fromJunction="J13" toJunction="J8" end="13600" vehsPerHour="18.32"/>
  <flow id="JF63884" begin="10000" fromJunction="J13" toJunction="J9" end="13600" vehsPerHour="18.32"/>
  <flow id="JF63885" begin="10000" fromJunction="J14" toJunction="J10" end="13600" vehsPerHour="18.32"/>
  <flow id="JF63886" begin="10000" fromJunction="J14" toJunction="J11" end="13600" vehsPerHour="18.32"/>
  <flow id="JF63887" begin="10000" fromJunction="J14" toJunction="J12" end="13600" vehsPerHour="18.32"/>
  <flow id="JF63888" begin="10000" fromJunction="J14" toJunction="J13" end="13600" vehsPerHour="18.32"/>
  <flow id="JF63889" begin="10000" fromJunction="J14" toJunction="J15" end="13600" vehsPerHour="18.32"/>
  <flow id="JF63890" begin="10000" fromJunction="J14" toJunction="J16" end="13600" vehsPerHour="18.32"/>
  <flow id="JF63891" begin="10000" fromJunction="J14" toJunction="J17" end="13600" vehsPerHour="18.32"/>
  <flow id="JF63892" begin="10000" fromJunction="J14" toJunction="J18" end="13600" vehsPerHour="18.32"/>
  <flow id="JF63893" begin="10000" fromJunction="J14" toJunction="J19" end="13600" vehsPerHour="18.32"/>