<?xml version="1.0" encoding="UTF-8"?>
<routes xmlns:xsi="http://www.w3.org/2001/XMLSchema-instance" xsi:noNamespaceSchemaLocation="http://sumo.dlr.de/xsd/routes_file.xsd">
  <flow id="JF2400" begin="0" fromJunction="J11" toJunction="J10" end="3600" vehsPerHour="18.32"/>
  <flow id="JF2401" begin="0" fromJunction="J11" toJunction="J12" end="3600" vehsPerHour="18.32"/>
  <flow id="JF2402" begin="0" fromJunction="J11" toJunction="J13" end="3600" vehsPerHour="18.32"/>
  <flow id="JF2403" begin="0" fromJunction="J11" toJunction="J14" end="3600" vehsPerHour="18.32"/>
  <flow id="JF2404" begin="0" fromJunction="J11" toJunction="J15" end="3600" vehsPerHour="18.32"/>
  <flow id="JF2405" begin="0" fromJunction="J11" toJunction="J16" end="3600" vehsPerHour="18.32"/>
  <flow id="JF2406" begin="0" fromJunction="J11" toJunction="J17" end="3600" vehsPerHour="18.32"/>
  <flow id="JF2407" begin="0" fromJunction="J11" toJunction="J18" end="3600" vehsPerHour="18.32"/>
  <flow id="JF2408" begin="0" fromJunction="J11" toJunction="J19" end="3600" vehsPerHour="18.32"/>
  <flow id="JF2409" begin="0" fromJunction="J11" toJunction="J20" end="3600" vehsPerHour="18.32"/>
  <flow id="JF2410" begin="0" fromJunction="J11" toJunction="J21" end="3600" vehsPerHour="18.32"/>
  <flow id="JF2411" begin="0" fromJunction="J11" toJunction="J22" end="3600" vehsPerHour="18.32"/>
  <flow id="JF2412" begin="0" fromJunction="J11" toJunction="J7" end="3600" vehsPerHour="18.32"/>
  <flow id="JF2413" begin="0" fromJunction="J11" toJunction="J8" end="3600" vehsPerHour="18.32"/>
  <flow id="JF2414" begin="0" fromJunction="J11" toJunction="J9" end="3600" vehsPerHour="18.32"/>
  <flow id="JF2415" begin="0" fromJunction="J12" toJunction="J10" end="3600" vehsPerHour="18.32"/>
  <flow id="JF2416" begin="0" fromJunction="J12" toJunction="J11" end="3600" vehsPerHour="18.32"/>
  <flow id="JF2417" begin="0" fromJunction="J12" toJunction="J13" end="3600" vehsPerHour="18.32"/>
  <flow id="JF2418" begin="0" fromJunction="J12" toJunction="J14" end="3600" vehsPerHour="18.32"/>
  <flow id="JF2419" begin="0" fromJunction="J12" toJunction="J15" end="3600" vehsPerHour="18.32"/>
  <flow id="JF2420" begin="0" fromJunction="J12" toJunction="J16" end="3600" vehsPerHour="18.32"/>
  <flow id="JF2421" begin="0" fromJunction="J12" toJunction="J17" end="3600" vehsPerHour="18.32"/>
  <flow id="JF2422" begin="0" fromJunction="J12" toJunction="J18" end="3600" vehsPerHour="18.32"/>
  <flow id="JF2423" begin="0" fromJunction="J12" toJunction="J19" end="3600" vehsPerHour="18.32"/>
  <flow id="JF2424" begin="0" fromJunction="J12" toJunction="J20" end="3600" vehsPerHour="18.32"/>
  <flow id="JF2425" begin="0" fromJunction="J12" toJunction="J21" end="3600" vehsPerHour="18.32"/>
  <flow id="JF2426" begin="0" fromJunction="J12" toJunction="J22" end="3600" vehsPerHour="18.32"/>
  <flow id="JF2427" begin="0" fromJunction="J12" toJunction="J7" end="3600" vehsPerHour="18.32"/>
  <flow id="JF2428" begin="0" fromJunction="J12" toJunction="J8" end="3600" vehsPerHour="18.32"/>
  <flow id="JF2429" begin="0" fromJunction="J12" toJunction="J9" end="3600" vehsPerHour="18.32"/>
  <flow id="JF2430" begin="0" fromJunction="J13" toJunction="J10" end="3600" vehsPerHour="18.32"/>
  <flow id="JF2431" begin="0" fromJunction="J13" toJunction="J11" end="3600" vehsPerHour="18.32"/>
  <flow id="JF2432" begin="0" fromJunction="J13" toJunction="J12" end="3600" vehsPerHour="18.32"/>
  <flow id="JF2433" begin="0" fromJunction="J13" toJunction="J14" end="3600" vehsPerHour="18.32"/>
  <flow id="JF2434" begin="0" fromJunction="J13" toJunction="J15" end="3600" vehsPerHour="18.32"/>
  <flow id="JF2435" begin="0" fromJunction="J13" toJunction="J16" end="3600" vehsPerHour="18.32"/>
  <flow id="JF2436" begin="0" fromJunction="J13" toJunction="J17" end="3600" vehsPerHour="18.32"/>
  <flow id="JF2437" begin="0" fromJunction="J13" toJunction="J18" end="3600" vehsPerHour="18.32"/>
  <flow id="JF2438" begin="0" fromJunction="J13" toJunction="J19" end="3600" vehsPerHour="18.32"/>
  <flow id="JF2439" begin="0" fromJunction="J13" toJunction="J20" end="3600" vehsPerHour="18.32"/>
  <flow id="JF2440" begin="0" fromJunction="J13" toJunction="J21" end="3600" vehsPerHour="18.32"/>
  <flow id="JF2441" begin="0" fromJunction="J13" toJunction="J22" end="3600" vehsPerHour="18.32"/>
  <flow id="JF2442" begin="0" fromJunction="J13" toJunction="J7" end="3600" vehsPerHour="18.32"/>
  <flow id="JF2443" begin="0" fromJunction="J13" toJunction="J8" end="3600" vehsPerHour="18.32"/>
  <flow id="JF2444" begin="0" fromJunction="J13" toJunction="J9" end="3600" vehsPerHour="18.32"/>
  <flow id="JF2445" begin="0" fromJunction="J14" toJunction="J10" end="3600" vehsPerHour="18.32"/>
  <flow id="JF2446" begin="0" fromJunction="J14" toJunction="J11" end="3600" vehsPerHour="18.32"/>
  <flow id="JF2447" begin="0" fromJunction="J14" toJunction="J12" end="3600" vehsPerHour="18.32"/>
  <flow id="JF2448" begin="0" fromJunction="J14" toJunction="J13" end="3600" vehsPerHour="18.32"/>
  <flow id="JF2449" begin="0" fromJunction="J14" toJunction="J15" end="3600" vehsPerHour="18.32"/>
  <flow id="JF2450" begin="0" fromJunction="J14" toJunction="J16" end="3600" vehsPerHour="18.32"/>
  <flow id="JF2451" begin="0" fromJunction="J14" toJunction="J17" end="3600" vehsPerHour="18.32"/>
  <flow id="JF2452" begin="0" fromJunction="J14" toJunction="J18" end="3600" vehsPerHour="18.32"/>
  <flow id="JF2453" begin="0" fromJunction="J14" toJunction="J19" end="3600" vehsPerHour="18.32"/>
  <flow id="JF2454" begin="0" fromJunction="J14" toJunction="J20" end="3600" vehsPerHour="18.32"/>
  <flow id="JF2455" begin="0" fromJunction="J14" toJunction="J21" end="3600" vehsPerHour="18.32"/>
  <flow id="JF2456" begin="0" fromJunction="J14" toJunction="J22" end="3600" vehsPerHour="18.32"/>
  <flow id="JF2457" begin="0" fromJunction="J14" toJunction="J7" end="3600" vehsPerHour="18.32"/>
  <flow id="JF2458" begin="0" fromJunction="J14" toJunction="J8" end="3600" vehsPerHour="18.32"/>
  <flow id="JF2459" begin="0" fromJunction="J14" toJunction="J9" end="3600" vehsPerHour="18.32"/>
  <flow id="JF2460" begin="0" fromJunction="J15" toJunction="J10" end="3600" vehsPerHour="18.32"/>
  <flow id="JF2461" begin="0" fromJunction="J15" toJunction="J11" end="3600" vehsPerHour="18.32"/>
  <flow id="JF2462" begin="0" fromJunction="J15" toJunction="J12" end="3600" vehsPerHour="18.32"/>
  <flow id="JF2463" begin="0" fromJunction="J15" toJunction="J13" end="3600" vehsPerHour="18.32"/>
  <flow id="JF2464" begin="0" fromJunction="J15" toJunction="J14" end="3600" vehsPerHour="18.32"/>
  <flow id="JF2465" begin="0" fromJunction="J15" toJunction="J16" end="3600" vehsPerHour="18.32"/>
  <flow id="JF2466" begin="0" fromJunction="J15" toJunction="J17" end="3600" vehsPerHour="18.32"/>
  <flow id="JF2467" begin="0" fromJunction="J15" toJunction="J18" end="3600" vehsPerHour="18.32"/>
  <flow id="JF2468" begin="0" fromJunction="J15" toJunction="J19" end="3600" vehsPerHour="18.32"/>
  <flow id="JF2469" begin="0" fromJunction="J15" toJunction="J20" end="3600" vehsPerHour="18.32"/>
  <flow id="JF2470" begin="0" fromJunction="J15" toJunction="J21" end="3600" vehsPerHour="18.32"/>
  <flow id="JF2471" begin="0" fromJunction="J15" toJunction="J22" end="3600" vehsPerHour="18.32"/>
  <flow id="JF2472" begin="0" fromJunction="J15" toJunction="J7" end="3600" vehsPerHour="18.32"/>
  <flow id="JF2473" begin="0" fromJunction="J15" toJunction="J8" end="3600" vehsPerHour="18.32"/>
  <flow id="JF2474" begin="0" fromJunction="J15" toJunction="J9" end="3600" vehsPerHour="18.32"/>
  <flow id="JF2475" begin="0" fromJunction="J16" toJunction="J10" end="3600" vehsPerHour="18.32"/>
  <flow id="JF2476" begin="0" fromJunction="J16" toJunction="J11" end="3600" vehsPerHour="18.32"/>
  <flow id="JF2477" begin="0" fromJunction="J16" toJunction="J12" end="3600" vehsPerHour="18.32"/>
  <flow id="JF2478" begin="0" fromJunction="J16" toJunction="J13" end="3600" vehsPerHour="18.32"/>
  <flow id="JF2479" begin="0" fromJunction="J16" toJunction="J14" end="3600" vehsPerHour="18.32"/>
  <flow id="JF2480" begin="0" fromJunction="J16" toJunction="J15" end="3600" vehsPerHour="18.32"/>
  <flow id="JF2481" begin="0" fromJunction="J16" toJunction="J17" end="3600" vehsPerHour="18.32"/>
  <flow id="JF2482" begin="0" fromJunction="J16" toJunction="J18" end="3600" vehsPerHour="18.32"/>
  <flow id="JF2483" begin="0" fromJunction="J16" toJunction="J19" end="3600" vehsPerHour="18.32"/>
  <flow id="JF2484" begin="0" fromJunction="J16" toJunction="J20" end="3600" vehsPerHour="18.32"/>
  <flow id="JF2485" begin="0" fromJunction="J16" toJunction="J21" end="3600" vehsPerHour="18.32"/>
  <flow id="JF2486" begin="0" fromJunction="J16" toJunction="J22" end="3600" vehsPerHour="18.32"/>
  <flow id="JF2487" begin="0" fromJunction="J16" toJunction="J7" end="3600" vehsPerHour="18.32"/>
  <flow id="JF2488" begin="0" fromJunction="J16" toJunction="J8" end="3600" vehsPerHour="18.32"/>
  <flow id="JF2489" begin="0" fromJunction="J16" toJunction="J9" end="3600" vehsPerHour="18.32"/>
  <flow id="JF2490" begin="0" fromJunction="J17" toJunction="J10" end="3600" vehsPerHour="18.32"/>
  <flow id="JF2491" begin="0" fromJunction="J17" toJunction="J11" end="3600" vehsPerHour="18.32"/>
  <flow id="JF2492" begin="0" fromJunction="J17" toJunction="J12" end="3600" vehsPerHour="18.32"/>
  <flow id="JF2493" begin="0" fromJunction="J17" toJunction="J13" end="3600" vehsPerHour="18.32"/>
  <flow id="JF2494" begin="0" fromJunction="J17" toJunction="J14" end="3600" vehsPerHour="18.32"/>
  <flow id="JF2495" begin="0" fromJunction="J17" toJunction="J15" end="3600" vehsPerHour="18.32"/>
  <flow id="JF2496" begin="0" fromJunction="J17" toJunction="J16" end="3600" vehsPerHour="18.32"/>
  <flow id="JF2497" begin="0" fromJunction="J17" toJunction="J18" end="3600" vehsPerHour="18.32"/>
  <flow id="JF2498" begin="0" fromJunction="J17" toJunction="J19" end="3600" vehsPerHour="18.32"/>
  <flow id="JF2499" begin="0" fromJunction="J17" toJunction="J20" end="3600" vehsPerHour="18.32"/>
  <flow id="JF2500" begin="0" fromJunction="J17" toJunction="J21" end="3600" vehsPerHour="18.32"/>
  <flow id="JF2501" begin="0" fromJunction="J17" toJunction="J22" end="3600" vehsPerHour="18.32"/>
  <flow id="JF2502" begin="0" fromJunction="J17" toJunction="J7" end="3600" vehsPerHour="18.32"/>
  <flow id="JF2503" begin="0" fromJunction="J17" toJunction="J8" end="3600" vehsPerHour="18.32"/>
  <flow id="JF2504" begin="0" fromJunction="J17" toJunction="J9" end="3600" vehsPerHour="18.32"/>
  <flow id="JF2505" begin="0" fromJunction="J18" toJunction="J10" end="3600" vehsPerHour="18.32"/>
  <flow id="JF2506" begin="0" fromJunction="J18" toJunction="J11" end="3600" vehsPerHour="18.32"/>
  <flow id="JF2507" begin="0" fromJunction="J18" toJunction="J12" end="3600" vehsPerHour="18.32"/>
  <flow id="JF2508" begin="0" fromJunction="J18" toJunction="J13" end="3600" vehsPerHour="18.32"/>
  <flow id="JF2509" begin="0" fromJunction="J18" toJunction="J14" end="3600" vehsPerHour="18.32"/>
  <flow id="JF2510" begin="0" fromJunction="J18" toJunction="J15" end="3600" vehsPerHour="18.32"/>
  <flow id="JF2511" begin="0" fromJunction="J18" toJunction="J16" end="3600" vehsPerHour="18.32"/>
  <flow id="JF2512" begin="0" fromJunction="J18" toJunction="J17" end="3600" vehsPerHour="18.32"/>
  <flow id="JF2513" begin="0" fromJunction="J18" toJunction="J19" end="3600" vehsPerHour="18.32"/>
  <flow id="JF2514" begin="0" fromJunction="J18" toJunction="J20" end="3600" vehsPerHour="18.32"/>
  <flow id="JF2515" begin="0" fromJunction="J18" toJunction="J21" end="3600" vehsPerHour="18.32"/>
  <flow id="JF2516" begin="0" fromJunction="J18" toJunction="J22" end="3600" vehsPerHour="18.32"/>
  <flow id="JF2517" begin="0" fromJunction="J18" toJunction="J7" end="3600" vehsPerHour="18.32"/>
  <flow id="JF2518" begin="0" fromJunction="J18" toJunction="J8" end="3600" vehsPerHour="18.32"/>
  <flow id="JF2519" begin="0" fromJunction="J18" toJunction="J9" end="3600" vehsPerHour="18.32"/>
  <flow id="JF2520" begin="0" fromJunction="J19" toJunction="J20" end="3600" vehsPerHour="305.33333333333337"/>
  <flow id="JF2521" begin="0" fromJunction="J19" toJunction="J10" end="3600" vehsPerHour="76.33333333333334"/>
  <flow id="JF2522" begin="0" fromJunction="J19" toJunction="J11" end="3600" vehsPerHour="76.33333333333334"/>
  <flow id="JF2523" begin="0" fromJunction="J19" toJunction="J12" end="3600" vehsPerHour="76.33333333333334"/>
  <flow id="JF2524" begin="0" fromJunction="J19" toJunction="J13" end="3600" vehsPerHour="76.33333333333334"/>
  <flow id="JF2525" begin="0" fromJunction="J19" toJunction="J14" end="3600" vehsPerHour="76.33333333333334"/>
  <flow id="JF2526" begin="0" fromJunction="J19" toJunction="J15" end="3600" vehsPerHour="76.33333333333334"/>
  <flow id="JF2527" begin="0" fromJunction="J19" toJunction="J16" end="3600" vehsPerHour="76.33333333333334"/>
  <flow id="JF2528" begin="0" fromJunction="J19" toJunction="J17" end="3600" vehsPerHour="76.33333333333334"/>
  <flow id="JF2529" begin="0" fromJunction="J19" toJunction="J18" end="3600" vehsPerHour="76.33333333333334"/>
  <flow id="JF2530" begin="0" fromJunction="J19" toJunction="J21" end="3600" vehsPerHour="76.33333333333334"/>
  <flow id="JF2531" begin="0" fromJunction="J19" toJunction="J22" end="3600" vehsPerHour="76.33333333333334"/>
  <flow id="JF2532" begin="0" fromJunction="J19" toJunction="J7" end="3600" vehsPerHour="76.33333333333334"/>
  <flow id="JF2533" begin="0" fromJunction="J19" toJunction="J8" end="3600" vehsPerHour="76.33333333333334"/>
  <flow id="JF2534" begin="0" fromJunction="J19" toJunction="J9" end="3600" vehsPerHour="76.33333333333334"/>
  <flow id="JF2535" begin="0" fromJunction="J20" toJunction="J10" end="3600" vehsPerHour="18.32"/>
  <flow id="JF2536" begin="0" fromJunction="J20" toJunction="J11" end="3600" vehsPerHour="18.32"/>
  <flow id="JF2537" begin="0" fromJunction="J20" toJunction="J12" end="3600" vehsPerHour="18.32"/>
  <flow id="JF2538" begin="0" fromJunction="J20" toJunction="J13" end="3600" vehsPerHour="18.32"/>
  <flow id="JF2539" begin="0" fromJunction="J20" toJunction="J14" end="3600" vehsPerHour="18.32"/>
  <flow id="JF2540" begin="0" fromJunction="J20" toJunction="J15" end="3600" vehsPerHour="18.32"/>
  <flow id="JF2541" begin="0" fromJunction="J20" toJunction="J16" end="3600" vehsPerHour="18.32"/>
  <flow id="JF2542" begin="0" fromJunction="J20" toJunction="J17" end="3600" vehsPerHour="18.32"/>
  <flow id="JF2543" begin="0" fromJunction="J20" toJunction="J18" end="3600" vehsPerHour="18.32"/>
  <flow id="JF2544" begin="0" fromJunction="J20" toJunction="J19" end="3600" vehsPerHour="18.32"/>
  <flow id="JF2545" begin="0" fromJunction="J20" toJunction="J21" end="3600" vehsPerHour="18.32"/>
  <flow id="JF2546" begin="0" fromJunction="J20" toJunction="J22" end="3600" vehsPerHour="18.32"/>
  <flow id="JF2547" begin="0" fromJunction="J20" toJunction="J7" end="3600" vehsPerHour="18.32"/>
  <flow id="JF2548" begin="0" fromJunction="J20" toJunction="J8" end="3600" vehsPerHour="18.32"/>
  <flow id="JF2549" begin="0" fromJunction="J20" toJunction="J9" end="3600" vehsPerHour="18.32"/>
  <flow id="JF2550" begin="0" fromJunction="J21" toJunction="J10" end="3600" vehsPerHour="18.32"/>
  <flow id="JF2551" begin="0" fromJunction="J21" toJunction="J11" end="3600" vehsPerHour="18.32"/>
  <flow id="JF2552" begin="0" fromJunction="J21" toJunction="J12" end="3600" vehsPerHour="18.32"/>
  <flow id="JF2553" begin="0" fromJunction="J21" toJunction="J13" end="3600" vehsPerHour="18.32"/>
  <flow id="JF2554" begin="0" fromJunction="J21" toJunction="J14" end="3600" vehsPerHour="18.32"/>
  <flow id="JF2555" begin="0" fromJunction="J21" toJunction="J15" end="3600" vehsPerHour="18.32"/>
  <flow id="JF2556" begin="0" fromJunction="J21" toJunction="J16" end="3600" vehsPerHour="18.32"/>
  <flow id="JF2557" begin="0" fromJunction="J21" toJunction="J17" end="3600" vehsPerHour="18.32"/>
  <flow id="JF2558" begin="0" fromJunction="J21" toJunction="J18" end="3600" vehsPerHour="18.32"/>
  <flow id="JF2559" begin="0" fromJunction="J21" toJunction="J19" end="3600" vehsPerHour="18.32"/>
  <flow id="JF2560" begin="0" fromJunction="J21" toJunction="J20" end="3600" vehsPerHour="18.32"/>
  <flow id="JF2561" begin="0" fromJunction="J21" toJunction="J22" end="3600" vehsPerHour="18.32"/>
  <flow id="JF2562" begin="0" fromJunction="J21" toJunction="J7" end="3600" vehsPerHour="18.32"/>
  <flow id="JF2563" begin="0" fromJunction="J21" toJunction="J8" end="3600" vehsPerHour="18.32"/>
  <flow id="JF2564" begin="0" fromJunction="J21" toJunction="J9" end="3600" vehsPerHour="18.32"/>
  <flow id="JF2565" begin="0" fromJunction="J22" toJunction="J10" end="3600" vehsPerHour="18.32"/>
  <flow id="JF2566" begin="0" fromJunction="J22" toJunction="J11" end="3600" vehsPerHour="18.32"/>
  <flow id="JF2567" begin="0" fromJunction="J22" toJunction="J12" end="3600" vehsPerHour="18.32"/>
  <flow id="JF2568" begin="0" fromJunction="J22" toJunction="J13" end="3600" vehsPerHour="18.32"/>
  <flow id="JF2569" begin="0" fromJunction="J22" toJunction="J14" end="3600" vehsPerHour="18.32"/>
  <flow id="JF2570" begin="0" fromJunction="J22" toJunction="J15" end="3600" vehsPerHour="18.32"/>
  <flow id="JF2571" begin="0" fromJunction="J22" toJunction="J16" end="3600" vehsPerHour="18.32"/>
  <flow id="JF2572" begin="0" fromJunction="J22" toJunction="J17" end="3600" vehsPerHour="18.32"/>
  <flow id="JF2573" begin="0" fromJunction="J22" toJunction="J18" end="3600" vehsPerHour="18.32"/>
  <flow id="JF2574" begin="0" fromJunction="J22" toJunction="J19" end="3600" vehsPerHour="18.32"/>
  <flow id="JF2575" begin="0" fromJunction="J22" toJunction="J20" end="3600" vehsPerHour="18.32"/>
  <flow id="JF2576" begin="0" fromJunction="J22" toJunction="J21" end="3600" vehsPerHour="18.32"/>
  <flow id="JF2577" begin="0" fromJunction="J22" toJunction="J7" end="3600" vehsPerHour="18.32"/>
  <flow id="JF2578" begin="0" fromJunction="J22" toJunction="J8" end="3600" vehsPerHour="18.32"/>
  <flow id="JF2579" begin="0" fromJunction="J22" toJunction="J9" end="3600" vehsPerHour="18.32"/>
  <flow id="JF2580" begin="0" fromJunction="J8" toJunction="J10" end="3600" vehsPerHour="36.64"/>
  <flow id="JF2581" begin="0" fromJunction="J8" toJunction="J11" end="3600" vehsPerHour="36.64"/>
  <flow id="JF2582" begin="0" fromJunction="J8" toJunction="J12" end="3600" vehsPerHour="36.64"/>
  <flow id="JF2583" begin="0" fromJunction="J8" toJunction="J13" end="3600" vehsPerHour="36.64"/>
  <flow id="JF2584" begin="0" fromJunction="J8" toJunction="J14" end="3600" vehsPerHour="36.64"/>
  <flow id="JF2585" begin="0" fromJunction="J8" toJunction="J15" end="3600" vehsPerHour="36.64"/>
  <flow id="JF2586" begin="0" fromJunction="J8" toJunction="J16" end="3600" vehsPerHour="36.64"/>
  <flow id="JF2587" begin="0" fromJunction="J8" toJunction="J17" end="3600" vehsPerHour="36.64"/>
  <flow id="JF2588" begin="0" fromJunction="J8" toJunction="J18" end="3600" vehsPerHour="36.64"/>
  <flow id="JF2589" begin="0" fromJunction="J8" toJunction="J19" end="3600" vehsPerHour="36.64"/>
  <flow id="JF2590" begin="0" fromJunction="J8" toJunction="J20" end="3600" vehsPerHour="36.64"/>
  <flow id="JF2591" begin="0" fromJunction="J8" toJunction="J21" end="3600" vehsPerHour="36.64"/>
  <flow id="JF2592" begin="0" fromJunction="J8" toJunction="J22" end="3600" vehsPerHour="36.64"/>
  <flow id="JF2593" begin="0" fromJunction="J8" toJunction="J7" end="3600" vehsPerHour="36.64"/>
  <flow id="JF2594" begin="0" fromJunction="J8" toJunction="J9" end="3600" vehsPerHour="36.64"/>
  <flow id="JF2595" begin="0" fromJunction="J9" toJunction="J10" end="3600" vehsPerHour="18.32"/>
  <flow id="JF2596" begin="0" fromJunction="J9" toJunction="J11" end="3600" vehsPerHour="18.32"/>
  <flow id="JF2597" begin="0" fromJunction="J9" toJunction="J12" end="3600" vehsPerHour="18.32"/>
  <flow id="JF2598" begin="0" fromJunction="J9" toJunction="J13" end="3600" vehsPerHour="18.32"/>
  <flow id="JF2599" begin="0" fromJunction="J9" toJunction="J14" end="3600" vehsPerHour="18.32"/>
  <flow id="JF2600" begin="0" fromJunction="J9" toJunction="J15" end="3600" vehsPerHour="18.32"/>
  <flow id="JF2601" begin="0" fromJunction="J9" toJunction="J16" end="3600" vehsPerHour="18.32"/>
  <flow id="JF2602" begin="0" fromJunction="J9" toJunction="J17" end="3600" vehsPerHour="18.32"/>
  <flow id="JF2603" begin="0" fromJunction="J9" toJunction="J18" end="3600" vehsPerHour="18.32"/>
  <flow id="JF2604" begin="0" fromJunction="J9" toJunction="J19" end="3600" vehsPerHour="18.32"/>
  <flow id="JF2605" begin="0" fromJunction="J9" toJunction="J20" end="3600" vehsPerHour="18.32"/>
  <flow id="JF2606" begin="0" fromJunction="J9" toJunction="J21" end="3600" vehsPerHour="18.32"/>
  <flow id="JF2607" begin="0" fromJunction="J9" toJunction="J22" end="3600" vehsPerHour="18.32"/>
  <flow id="JF2608" begin="0" fromJunction="J9" toJunction="J7" end="3600" vehsPerHour="18.32"/>
  <flow id="JF2609" begin="0" fromJunction="J9" toJunction="J8" end="3600" vehsPerHour="18.32"/>
  <flow id="JF2610" begin="0" fromJunction="J10" toJunction="J11" end="3600" vehsPerHour="18.32"/>
  <flow id="JF2611" begin="0" fromJunction="J10" toJunction="J12" end="3600" vehsPerHour="18.32"/>
  <flow id="JF2612" begin="0" fromJunction="J10" toJunction="J13" end="3600" vehsPerHour="18.32"/>
  <flow id="JF2613" begin="0" fromJunction="J10" toJunction="J14" end="3600" vehsPerHour="18.32"/>
  <flow id="JF2614" begin="0" fromJunction="J10" toJunction="J15" end="3600" vehsPerHour="18.32"/>
  <flow id="JF2615" begin="0" fromJunction="J10" toJunction="J16" end="3600" vehsPerHour="18.32"/>
  <flow id="JF2616" begin="0" fromJunction="J10" toJunction="J17" end="3600" vehsPerHour="18.32"/>
  <flow id="JF2617" begin="0" fromJunction="J10" toJunction="J18" end="3600" vehsPerHour="18.32"/>
  <flow id="JF2618" begin="0" fromJunction="J10" toJunction="J19" end="3600" vehsPerHour="18.32"/>
  <flow id="JF2619" begin="0" fromJunction="J10" toJunction="J20" end="3600" vehsPerHour="18.32"/>
  <flow id="JF2620" begin="0" fromJunction="J10" toJunction="J21" end="3600" vehsPerHour="18.32"/>
  <flow id="JF2621" begin="0" fromJunction="J10" toJunction="J22" end="3600" vehsPerHour="18.32"/>
  <flow id="JF2622" begin="0" fromJunction="J10" toJunction="J7" end="3600" vehsPerHour="18.32"/>
  <flow id="JF2623" begin="0" fromJunction="J10" toJunction="J8" end="3600" vehsPerHour="18.32"/>
  <flow id="JF2624" begin="0" fromJunction="J10" toJunction="J9" end="3600" vehsPerHour="18.32"/>
  <flow id="JF2625" begin="0" fromJunction="J7" toJunction="J10" end="3600" vehsPerHour="36.64"/>
  <flow id="JF2626" begin="0" fromJunction="J7" toJunction="J11" end="3600" vehsPerHour="36.64"/>
  <flow id="JF2627" begin="0" fromJunction="J7" toJunction="J12" end="3600" vehsPerHour="36.64"/>
  <flow id="JF2628" begin="0" fromJunction="J7" toJunction="J13" end="3600" vehsPerHour="36.64"/>
  <flow id="JF2629" begin="0" fromJunction="J7" toJunction="J14" end="3600" vehsPerHour="36.64"/>
  <flow id="JF2630" begin="0" fromJunction="J7" toJunction="J15" end="3600" vehsPerHour="36.64"/>
  <flow id="JF2631" begin="0" fromJunction="J7" toJunction="J16" end="3600" vehsPerHour="36.64"/>
  <flow id="JF2632" begin="0" fromJunction="J7" toJunction="J17" end="3600" vehsPerHour="36.64"/>
  <flow id="JF2633" begin="0" fromJunction="J7" toJunction="J18" end="3600" vehsPerHour="36.64"/>
  <flow id="JF2634" begin="0" fromJunction="J7" toJunction="J19" end="3600" vehsPerHour="36.64"/>
  <flow id="JF2635" begin="0" fromJunction="J7" toJunction="J20" end="3600" vehsPerHour="36.64"/>
  <flow id="JF2636" begin="0" fromJunction="J7" toJunction="J21" end="3600" vehsPerHour="36.64"/>
  <flow id="JF2637" begin="0" fromJunction="J7" toJunction="J22" end="3600" vehsPerHour="36.64"/>
  <flow id="JF2638" begin="0" fromJunction="J7" toJunction="J8" end="3600" vehsPerHour="36.64"/>
  <flow id="JF2639" begin="0" fromJunction="J7" toJunction="J9" end="3600" vehsPerHour="36.64"/>
  <flow id="JF2640" begin="10000" fromJunction="J11" toJunction="J10" end="13600" vehsPerHour="18.32"/>
  <flow id="JF2641" begin="10000" fromJunction="J11" toJunction="J12" end="13600" vehsPerHour="18.32"/>
  <flow id="JF2642" begin="10000" fromJunction="J11" toJunction="J13" end="13600" vehsPerHour="18.32"/>
  <flow id="JF2643" begin="10000" fromJunction="J11" toJunction="J14" end="13600" vehsPerHour="18.32"/>
  <flow id="JF2644" begin="10000" fromJunction="J11" toJunction="J15" end="13600" vehsPerHour="18.32"/>
  <flow id="JF2645" begin="10000" fromJunction="J11" toJunction="J16" end="13600" vehsPerHour="18.32"/>
  <flow id="JF2646" begin="10000" fromJunction="J11" toJunction="J17" end="13600" vehsPerHour="18.32"/>
  <flow id="JF2647" begin="10000" fromJunction="J11" toJunction="J18" end="13600" vehsPerHour="18.32"/>
  <flow id="JF2648" begin="10000" fromJunction="J11" toJunction="J19" end="13600" vehsPerHour="18.32"/>
  <flow id="JF2649" begin="10000" fromJunction="J11" toJunction="J20" end="13600" vehsPerHour="18.32"/>
  <flow id="JF2650" begin="10000" fromJunction="J11" toJunction="J21" end="13600" vehsPerHour="18.32"/>
  <flow id="JF2651" begin="10000" fromJunction="J11" toJunction="J22" end="13600" vehsPerHour="18.32"/>
  <flow id="JF2652" begin="10000" fromJunction="J11" toJunction="J7" end="13600" vehsPerHour="18.32"/>
  <flow id="JF2653" begin="10000" fromJunction="J11" toJunction="J8" end="13600" vehsPerHour="18.32"/>
  <flow id="JF2654" begin="10000" fromJunction="J11" toJunction="J9" end="13600" vehsPerHour="18.32"/>
  <flow id="JF2655" begin="10000" fromJunction="J12" toJunction="J10" end="13600" vehsPerHour="18.32"/>
  <flow id="JF2656" begin="10000" fromJunction="J12" toJunction="J11" end="13600" vehsPerHour="18.32"/>
  <flow id="JF2657" begin="10000" fromJunction="J12" toJunction="J13" end="13600" vehsPerHour="18.32"/>
  <flow id="JF2658" begin="10000" fromJunction="J12" toJunction="J14" end="13600" vehsPerHour="18.32"/>
  <flow id="JF2659" begin="10000" fromJunction="J12" toJunction="J15" end="13600" vehsPerHour="18.32"/>
  <flow id="JF2660" begin="10000" fromJunction="J12" toJunction="J16" end="13600" vehsPerHour="18.32"/>
  <flow id="JF2661" begin="10000" fromJunction="J12" toJunction="J17" end="13600" vehsPerHour="18.32"/>
  <flow id="JF2662" begin="10000" fromJunction="J12" toJunction="J18" end="13600" vehsPerHour="18.32"/>
  <flow id="JF2663" begin="10000" fromJunction="J12" toJunction="J19" end="13600" vehsPerHour="18.32"/>
  <flow id="JF2664" begin="10000" fromJunction="J12" toJunction="J20" end="13600" vehsPerHour="18.32"/>
  <flow id="JF2665" begin="10000" fromJunction="J12" toJunction="J21" end="13600" vehsPerHour="18.32"/>
  <flow id="JF2666" begin="10000" fromJunction="J12" toJunction="J22" end="13600" vehsPerHour="18.32"/>
  <flow id="JF2667" begin="10000" fromJunction="J12" toJunction="J7" end="13600" vehsPerHour="18.32"/>
  <flow id="JF2668" begin="10000" fromJunction="J12" toJunction="J8" end="13600" vehsPerHour="18.32"/>
  <flow id="JF2669" begin="10000" fromJunction="J12" toJunction="J9" end="13600" vehsPerHour="18.32"/>
  <flow id="JF2670" begin="10000" fromJunction="J13" toJunction="J10" end="13600" vehsPerHour="18.32"/>
  <flow id="JF2671" begin="10000" fromJunction="J13" toJunction="J11" end="13600" vehsPerHour="18.32"/>
  <flow id="JF2672" begin="10000" fromJunction="J13" toJunction="J12" end="13600" vehsPerHour="18.32"/>
  <flow id="JF2673" begin="10000" fromJunction="J13" toJunction="J14" end="13600" vehsPerHour="18.32"/>
  <flow id="JF2674" begin="10000" fromJunction="J13" toJunction="J15" end="13600" vehsPerHour="18.32"/>
  <flow id="JF2675" begin="10000" fromJunction="J13" toJunction="J16" end="13600" vehsPerHour="18.32"/>
  <flow id="JF2676" begin="10000" fromJunction="J13" toJunction="J17" end="13600" vehsPerHour="18.32"/>
  <flow id="JF2677" begin="10000" fromJunction="J13" toJunction="J18" end="13600" vehsPerHour="18.32"/>
  <flow id="JF2678" begin="10000" fromJunction="J13" toJunction="J19" end="13600" vehsPerHour="18.32"/>
  <flow id="JF2679" begin="10000" fromJunction="J13" toJunction="J20" end="13600" vehsPerHour="18.32"/>
  <flow id="JF2680" begin="10000" fromJunction="J13" toJunction="J21" end="13600" vehsPerHour="18.32"/>
  <flow id="JF2681" begin="10000" fromJunction="J13" toJunction="J22" end="13600" vehsPerHour="18.32"/>
  <flow id="JF2682" begin="10000" fromJunction="J13" toJunction="J7" end="13600" vehsPerHour="18.32"/>
  <flow id="JF2683" begin="10000" fromJunction="J13" toJunction="J8" end="13600" vehsPerHour="18.32"/>
  <flow id="JF2684" begin="10000" fromJunction="J13" toJunction="J9" end="13600" vehsPerHour="18.32"/>
  <flow id="JF2685" begin="10000" fromJunction="J14" toJunction="J10" end="13600" vehsPerHour="18.32"/>
  <flow id="JF2686" begin="10000" fromJunction="J14" toJunction="J11" end="13600" vehsPerHour="18.32"/>
  <flow id="JF2687" begin="10000" fromJunction="J14" toJunction="J12" end="13600" vehsPerHour="18.32"/>
  <flow id="JF2688" begin="10000" fromJunction="J14" toJunction="J13" end="13600" vehsPerHour="18.32"/>
  <flow id="JF2689" begin="10000" fromJunction="J14" toJunction="J15" end="13600" vehsPerHour="18.32"/>
  <flow id="JF2690" begin="10000" fromJunction="J14" toJunction="J16" end="13600" vehsPerHour="18.32"/>
  <flow id="JF2691" begin="10000" fromJunction="J14" toJunction="J17" end="13600" vehsPerHour="18.32"/>
  <flow id="JF2692" begin="10000" fromJunction="J14" toJunction="J18" end="13600" vehsPerHour="18.32"/>
  <flow id="JF2693" begin="10000" fromJunction="J14" toJunction="J19" end="13600" vehsPerHour="18.32"/>
  <flow id="JF2694" begin="10000" fromJunction="J14" toJunction="J20" end="13600" vehsPerHour="18.32"/>
  <flow id="JF2695" begin="10000" fromJunction="J14" toJunction="J21" end="13600" vehsPerHour="18.32"/>
  <flow id="JF2696" begin="10000" fromJunction="J14" toJunction="J22" end="13600" vehsPerHour="18.32"/>