<?xml version="1.0" encoding="UTF-8"?>
<routes xmlns:xsi="http://www.w3.org/2001/XMLSchema-instance" xsi:noNamespaceSchemaLocation="http://sumo.dlr.de/xsd/routes_file.xsd">
  <flow id="JF35220" begin="0" fromJunction="J0" toJunction="J3" end="60" vehsPerHour="81.32042132376517" departLane="free"/>
  <flow id="JF35221" begin="0" fromJunction="J3" toJunction="J0" end="60" vehsPerHour="58.99527245204138" departLane="free"/>
  <flow id="JF35222" begin="0" fromJunction="J0" toJunction="J5" end="60" vehsPerHour="8.495272803578416" departLane="free"/>
  <flow id="JF35223" begin="0" fromJunction="J0" toJunction="J4" end="60" vehsPerHour="3.9580708844156014" departLane="free"/>
  <flow id="JF35224" begin="0" fromJunction="J0" toJunction="J7" end="60" vehsPerHour="114.26383139805108" departLane="free"/>
  <flow id="JF35225" begin="0" fromJunction="J0" toJunction="J6" end="60" vehsPerHour="7.38864306621923" departLane="free"/>
  <flow id="JF35226" begin="0" fromJunction="J3" toJunction="J5" end="60" vehsPerHour="78.90042990612443" departLane="free"/>
  <flow id="JF35227" begin="0" fromJunction="J3" toJunction="J4" end="60" vehsPerHour="106.32166950715057" departLane="free"/>
  <flow id="JF35228" begin="0" fromJunction="J3" toJunction="J7" end="60" vehsPerHour="49.24289382096818" departLane="free"/>
  <flow id="JF35229" begin="0" fromJunction="J3" toJunction="J6" end="60" vehsPerHour="18.619564435558587" departLane="free"/>
  <flow id="JF35230" begin="0" fromJunction="J5" toJunction="J4" end="60" vehsPerHour="18.851804393159252" departLane="free"/>
  <flow id="JF35231" begin="0" fromJunction="J5" toJunction="J7" end="60" vehsPerHour="9.082387795223433" departLane="free"/>
  <flow id="JF35232" begin="0" fromJunction="J5" toJunction="J6" end="60" vehsPerHour="44.41960523355916" departLane="free"/>
  <flow id="JF35233" begin="0" fromJunction="J4" toJunction="J5" end="60" vehsPerHour="44.29028323617853" departLane="free"/>
  <flow id="JF35234" begin="0" fromJunction="J4" toJunction="J7" end="60" vehsPerHour="32.13395487518463" departLane="free"/>
  <flow id="JF35235" begin="0" fromJunction="J4" toJunction="J6" end="60" vehsPerHour="40.62489428224306" departLane="free"/>
  <flow id="JF35236" begin="0" fromJunction="J7" toJunction="J5" end="60" vehsPerHour="0.5064217370243743" departLane="free"/>
  <flow id="JF35237" begin="0" fromJunction="J7" toJunction="J4" end="60" vehsPerHour="62.366694220746936" departLane="free"/>
  <flow id="JF35238" begin="0" fromJunction="J7" toJunction="J6" end="60" vehsPerHour="36.891761315304706" departLane="free"/>
  <flow id="JF35239" begin="0" fromJunction="J6" toJunction="J5" end="60" vehsPerHour="55.208671813288944" departLane="free"/>
  <flow id="JF35240" begin="0" fromJunction="J6" toJunction="J4" end="60" vehsPerHour="52.63761192769529" departLane="free"/>
  <flow id="JF35241" begin="0" fromJunction="J6" toJunction="J7" end="60" vehsPerHour="48.084268200157624" departLane="free"/>
  <flow id="JF35242" begin="0" fromJunction="J5" toJunction="J0" end="60" vehsPerHour="10.30953207736661" departLane="free"/>
  <flow id="JF35243" begin="0" fromJunction="J5" toJunction="J3" end="60" vehsPerHour="5.037296112635772" departLane="free"/>
  <flow id="JF35244" begin="0" fromJunction="J4" toJunction="J0" end="60" vehsPerHour="7.085200391846515" departLane="free"/>
  <flow id="JF35245" begin="0" fromJunction="J4" toJunction="J3" end="60" vehsPerHour="29.106904295254836" departLane="free"/>
  <flow id="JF35246" begin="0" fromJunction="J7" toJunction="J0" end="60" vehsPerHour="39.012868179112104" departLane="free"/>
  <flow id="JF35247" begin="0" fromJunction="J7" toJunction="J3" end="60" vehsPerHour="44.62624282944435" departLane="free"/>
  <flow id="JF35248" begin="0" fromJunction="J6" toJunction="J0" end="60" vehsPerHour="3.9327509846842927" departLane="free"/>
  <flow id="JF35249" begin="0" fromJunction="J6" toJunction="J3" end="60" vehsPerHour="35.79200332529361" departLane="free"/>
  <flow id="JF35250" begin="60" fromJunction="J0" toJunction="J3" end="120" vehsPerHour="43.42901040642962" departLane="free"/>
  <flow id="JF35251" begin="60" fromJunction="J3" toJunction="J0" end="120" vehsPerHour="51.479343299216325" departLane="free"/>
  <flow id="JF35252" begin="60" fromJunction="J0" toJunction="J5" end="120" vehsPerHour="83.5309908645844" departLane="free"/>
  <flow id="JF35253" begin="60" fromJunction="J0" toJunction="J4" end="120" vehsPerHour="48.47606627853754" departLane="free"/>
  <flow id="JF35254" begin="60" fromJunction="J0" toJunction="J7" end="120" vehsPerHour="65.42799836778559" departLane="free"/>
  <flow id="JF35255" begin="60" fromJunction="J0" toJunction="J6" end="120" vehsPerHour="84.75080293941154" departLane="free"/>
  <flow id="JF35256" begin="60" fromJunction="J3" toJunction="J5" end="120" vehsPerHour="0.7442156673903992" departLane="free"/>
  <flow id="JF35257" begin="60" fromJunction="J3" toJunction="J4" end="120" vehsPerHour="89.99311842161639" departLane="free"/>
  <flow id="JF35258" begin="60" fromJunction="J3" toJunction="J7" end="120" vehsPerHour="107.1138213574966" departLane="free"/>
  <flow id="JF35259" begin="60" fromJunction="J3" toJunction="J6" end="120" vehsPerHour="115.23147591373925" departLane="free"/>
  <flow id="JF35260" begin="60" fromJunction="J5" toJunction="J4" end="120" vehsPerHour="31.313343231540706" departLane="free"/>
  <flow id="JF35261" begin="60" fromJunction="J5" toJunction="J7" end="120" vehsPerHour="17.58173515245944" departLane="free"/>
  <flow id="JF35262" begin="60" fromJunction="J5" toJunction="J6" end="120" vehsPerHour="29.11375701693634" departLane="free"/>
  <flow id="JF35263" begin="60" fromJunction="J4" toJunction="J5" end="120" vehsPerHour="26.583211411884584" departLane="free"/>
  <flow id="JF35264" begin="60" fromJunction="J4" toJunction="J7" end="120" vehsPerHour="64.80062987889056" departLane="free"/>
  <flow id="JF35265" begin="60" fromJunction="J4" toJunction="J6" end="120" vehsPerHour="52.24827509285772" departLane="free"/>
  <flow id="JF35266" begin="60" fromJunction="J7" toJunction="J5" end="120" vehsPerHour="25.82983903427412" departLane="free"/>
  <flow id="JF35267" begin="60" fromJunction="J7" toJunction="J4" end="120" vehsPerHour="27.663941589128143" departLane="free"/>
  <flow id="JF35268" begin="60" fromJunction="J7" toJunction="J6" end="120" vehsPerHour="37.403338509581694" departLane="free"/>
  <flow id="JF35269" begin="60" fromJunction="J6" toJunction="J5" end="120" vehsPerHour="61.365253523153896" departLane="free"/>
  <flow id="JF35270" begin="60" fromJunction="J6" toJunction="J4" end="120" vehsPerHour="31.47328362133999" departLane="free"/>
  <flow id="JF35271" begin="60" fromJunction="J6" toJunction="J7" end="120" vehsPerHour="11.420774868762736" departLane="free"/>
  <flow id="JF35272" begin="60" fromJunction="J5" toJunction="J0" end="120" vehsPerHour="65.69490854572379" departLane="free"/>
  <flow id="JF35273" begin="60" fromJunction="J5" toJunction="J3" end="120" vehsPerHour="39.95418722544816" departLane="free"/>
  <flow id="JF35274" begin="60" fromJunction="J4" toJunction="J0" end="120" vehsPerHour="45.109458261822965" departLane="free"/>
  <flow id="JF35275" begin="60" fromJunction="J4" toJunction="J3" end="120" vehsPerHour="34.461067522879716" departLane="free"/>
  <flow id="JF35276" begin="60" fromJunction="J7" toJunction="J0" end="120" vehsPerHour="19.271080999187053" departLane="free"/>
  <flow id="JF35277" begin="60" fromJunction="J7" toJunction="J3" end="120" vehsPerHour="4.681260328764724" departLane="free"/>
  <flow id="JF35278" begin="60" fromJunction="J6" toJunction="J0" end="120" vehsPerHour="58.01537763604744" departLane="free"/>
  <flow id="JF35279" begin="60" fromJunction="J6" toJunction="J3" end="120" vehsPerHour="53.362586962193475" departLane="free"/>
  <flow id="JF35280" begin="120" fromJunction="J0" toJunction="J3" end="180" vehsPerHour="127.96265918629699" departLane="free"/>
  <flow id="JF35281" begin="120" fromJunction="J3" toJunction="J0" end="180" vehsPerHour="39.687365798145166" departLane="free"/>
  <flow id="JF35282" begin="120" fromJunction="J0" toJunction="J5" end="180" vehsPerHour="78.90700222226415" departLane="free"/>
  <flow id="JF35283" begin="120" fromJunction="J0" toJunction="J4" end="180" vehsPerHour="127.66762374597498" departLane="free"/>
  <flow id="JF35284" begin="120" fromJunction="J0" toJunction="J7" end="180" vehsPerHour="119.14317476521424" departLane="free"/>
  <flow id="JF35285" begin="120" fromJunction="J0" toJunction="J6" end="180" vehsPerHour="53.1563508118746" departLane="free"/>
  <flow id="JF35286" begin="120" fromJunction="J3" toJunction="J5" end="180" vehsPerHour="69.45129759253929" departLane="free"/>
  <flow id="JF35287" begin="120" fromJunction="J3" toJunction="J4" end="180" vehsPerHour="41.654804367664156" departLane="free"/>
  <flow id="JF35288" begin="120" fromJunction="J3" toJunction="J7" end="180" vehsPerHour="55.28734674169621" departLane="free"/>
  <flow id="JF35289" begin="120" fromJunction="J3" toJunction="J6" end="180" vehsPerHour="72.30140427145216" departLane="free"/>
  <flow id="JF35290" begin="120" fromJunction="J5" toJunction="J4" end="180" vehsPerHour="2.128615233888181" departLane="free"/>
  <flow id="JF35291" begin="120" fromJunction="J5" toJunction="J7" end="180" vehsPerHour="59.255407945432204" departLane="free"/>
  <flow id="JF35292" begin="120" fromJunction="J5" toJunction="J6" end="180" vehsPerHour="9.388995057729435" departLane="free"/>
  <flow id="JF35293" begin="120" fromJunction="J4" toJunction="J5" end="180" vehsPerHour="46.64584895252055" departLane="free"/>
  <flow id="JF35294" begin="120" fromJunction="J4" toJunction="J7" end="180" vehsPerHour="46.19121684177041" departLane="free"/>
  <flow id="JF35295" begin="120" fromJunction="J4" toJunction="J6" end="180" vehsPerHour="56.415715437580594" departLane="free"/>
  <flow id="JF35296" begin="120" fromJunction="J7" toJunction="J5" end="180" vehsPerHour="15.986223315712834" departLane="free"/>
  <flow id="JF35297" begin="120" fromJunction="J7" toJunction="J4" end="180" vehsPerHour="24.740537175138574" departLane="free"/>
  <flow id="JF35298" begin="120" fromJunction="J7" toJunction="J6" end="180" vehsPerHour="60.95382344808819" departLane="free"/>
  <flow id="JF35299" begin="120" fromJunction="J6" toJunction="J5" end="180" vehsPerHour="34.31264123783877" departLane="free"/>
  <flow id="JF35300" begin="120" fromJunction="J6" toJunction="J4" end="180" vehsPerHour="31.982280014299437" departLane="free"/>
  <flow id="JF35301" begin="120" fromJunction="J6" toJunction="J7" end="180" vehsPerHour="21.25315152022246" departLane="free"/>
  <flow id="JF35302" begin="120" fromJunction="J5" toJunction="J0" end="180" vehsPerHour="2.500932117067157" departLane="free"/>
  <flow id="JF35303" begin="120" fromJunction="J5" toJunction="J3" end="180" vehsPerHour="49.80661674723926" departLane="free"/>
  <flow id="JF35304" begin="120" fromJunction="J4" toJunction="J0" end="180" vehsPerHour="32.60489713518897" departLane="free"/>
  <flow id="JF35305" begin="120" fromJunction="J4" toJunction="J3" end="180" vehsPerHour="26.10667590175407" departLane="free"/>
  <flow id="JF35306" begin="120" fromJunction="J7" toJunction="J0" end="180" vehsPerHour="27.104221560324497" departLane="free"/>
  <flow id="JF35307" begin="120" fromJunction="J7" toJunction="J3" end="180" vehsPerHour="19.344922229002137" departLane="free"/>
  <flow id="JF35308" begin="120" fromJunction="J6" toJunction="J0" end="180" vehsPerHour="19.10750779665062" departLane="free"/>
  <flow id="JF35309" begin="120" fromJunction="J6" toJunction="J3" end="180" vehsPerHour="41.9314139773097" departLane="free"/>
  <flow id="JF35310" begin="180" fromJunction="J0" toJunction="J3" end="240" vehsPerHour="76.75947146746529" departLane="free"/>
  <flow id="JF35311" begin="180" fromJunction="J3" toJunction="J0" end="240" vehsPerHour="86.40682519942742" departLane="free"/>
  <flow id="JF35312" begin="180" fromJunction="J0" toJunction="J5" end="240" vehsPerHour="11.576699447510421" departLane="free"/>
  <flow id="JF35313" begin="180" fromJunction="J0" toJunction="J4" end="240" vehsPerHour="15.062787430624184" departLane="free"/>
  <flow id="JF35314" begin="180" fromJunction="J0" toJunction="J7" end="240" vehsPerHour="10.489667879889984" departLane="free"/>
  <flow id="JF35315" begin="180" fromJunction="J0" toJunction="J6" end="240" vehsPerHour="136.69851755915522" departLane="free"/>
  <flow id="JF35316" begin="180" fromJunction="J3" toJunction="J5" end="240" vehsPerHour="19.304073698046633" departLane="free"/>
  <flow id="JF35317" begin="180" fromJunction="J3" toJunction="J4" end="240" vehsPerHour="123.94709976650661" departLane="free"/>
  <flow id="JF35318" begin="180" fromJunction="J3" toJunction="J7" end="240" vehsPerHour="127.88619401466583" departLane="free"/>
  <flow id="JF35319" begin="180" fromJunction="J3" toJunction="J6" end="240" vehsPerHour="10.777329561172905" departLane="free"/>
  <flow id="JF35320" begin="240" fromJunction="J0" toJunction="J3" end="300" vehsPerHour="42.16377895550736" departLane="free"/>
  <flow id="JF35321" begin="240" fromJunction="J3" toJunction="J0" end="300" vehsPerHour="8.683586547495889" departLane="free"/>
  <flow id="JF35322" begin="240" fromJunction="J0" toJunction="J5" end="300" vehsPerHour="116.1245002243319" departLane="free"/>
  <flow id="JF35323" begin="240" fromJunction="J0" toJunction="J4" end="300" vehsPerHour="132.34524606939263" departLane="free"/>
  <flow id="JF35324" begin="240" fromJunction="J0" toJunction="J7" end="300" vehsPerHour="102.27937283238617" departLane="free"/>
  <flow id="JF35325" begin="240" fromJunction="J0" toJunction="J6" end="300" vehsPerHour="61.33556115408307" departLane="free"/>
  <flow id="JF35326" begin="240" fromJunction="J3" toJunction="J5" end="300" vehsPerHour="77.97903049911666" departLane="free"/>
  <flow id="JF35327" begin="240" fromJunction="J3" toJunction="J4" end="300" vehsPerHour="82.35475200687279" departLane="free"/>
  <flow id="JF35328" begin="240" fromJunction="J3" toJunction="J7" end="300" vehsPerHour="61.54604326478087" departLane="free"/>
  <flow id="JF35329" begin="240" fromJunction="J3" toJunction="J6" end="300" vehsPerHour="59.28017813394358" departLane="free"/>
  <flow id="JF35330" begin="300" fromJunction="J0" toJunction="J3" end="360" vehsPerHour="82.34642954524882" departLane="free"/>
  <flow id="JF35331" begin="300" fromJunction="J3" toJunction="J0" end="360" vehsPerHour="14.976771683264518" departLane="free"/>
  <flow id="JF35332" begin="300" fromJunction="J0" toJunction="J5" end="360" vehsPerHour="53.61356482372471" departLane="free"/>
  <flow id="JF35333" begin="300" fromJunction="J0" toJunction="J4" end="360" vehsPerHour="2.5703401119859635" departLane="free"/>
  <flow id="JF35334" begin="300" fromJunction="J0" toJunction="J7" end="360" vehsPerHour="76.90157953214022" departLane="free"/>
  <flow id="JF35335" begin="300" fromJunction="J0" toJunction="J6" end="360" vehsPerHour="79.7344433858329" departLane="free"/>
  <flow id="JF35336" begin="300" fromJunction="J3" toJunction="J5" end="360" vehsPerHour="12.616271500616712" departLane="free"/>
  <flow id="JF35337" begin="300" fromJunction="J3" toJunction="J4" end="360" vehsPerHour="71.6936790610735" departLane="free"/>
  <flow id="JF35338" begin="300" fromJunction="J3" toJunction="J7" end="360" vehsPerHour="11.939066076028682" departLane="free"/>
  <flow id="JF35339" begin="300" fromJunction="J3" toJunction="J6" end="360" vehsPerHour="9.475827731318644" departLane="free"/>
  <flow id="JF35340" begin="360" fromJunction="J0" toJunction="J3" end="420" vehsPerHour="39.85655508078254" departLane="free"/>
  <flow id="JF35341" begin="360" fromJunction="J3" toJunction="J0" end="420" vehsPerHour="105.1564726386907" departLane="free"/>
  <flow id="JF35342" begin="360" fromJunction="J0" toJunction="J5" end="420" vehsPerHour="94.92218819872029" departLane="free"/>
  <flow id="JF35343" begin="360" fromJunction="J0" toJunction="J4" end="420" vehsPerHour="63.99440548743301" departLane="free"/>
  <flow id="JF35344" begin="360" fromJunction="J0" toJunction="J7" end="420" vehsPerHour="40.02463394753901" departLane="free"/>
  <flow id="JF35345" begin="360" fromJunction="J0" toJunction="J6" end="420" vehsPerHour="19.23358591204707" departLane="free"/>
  <flow id="JF35346" begin="360" fromJunction="J3" toJunction="J5" end="420" vehsPerHour="54.33542008916832" departLane="free"/>
  <flow id="JF35347" begin="360" fromJunction="J3" toJunction="J4" end="420" vehsPerHour="69.81189848072405" departLane="free"/>
  <flow id="JF35348" begin="360" fromJunction="J3" toJunction="J7" end="420" vehsPerHour="129.6565106018231" departLane="free"/>
  <flow id="JF35349" begin="360" fromJunction="J3" toJunction="J6" end="420" vehsPerHour="114.72274784962079" departLane="free"/>
  <flow id="JF35350" begin="360" fromJunction="J5" toJunction="J4" end="420" vehsPerHour="38.0130445737592" departLane="free"/>
  <flow id="JF35351" begin="360" fromJunction="J5" toJunction="J7" end="420" vehsPerHour="53.52089801005271" departLane="free"/>
  <flow id="JF35352" begin="360" fromJunction="J5" toJunction="J6" end="420" vehsPerHour="60.31531283031899" departLane="free"/>
  <flow id="JF35353" begin="360" fromJunction="J4" toJunction="J5" end="420" vehsPerHour="22.593276132983217" departLane="free"/>
  <flow id="JF35354" begin="360" fromJunction="J4" toJunction="J7" end="420" vehsPerHour="53.39228375370778" departLane="free"/>
  <flow id="JF35355" begin="360" fromJunction="J4" toJunction="J6" end="420" vehsPerHour="40.107740864572804" departLane="free"/>
  <flow id="JF35356" begin="360" fromJunction="J7" toJunction="J5" end="420" vehsPerHour="64.95367244720983" departLane="free"/>
  <flow id="JF35357" begin="360" fromJunction="J7" toJunction="J4" end="420" vehsPerHour="21.481554664095846" departLane="free"/>
  <flow id="JF35358" begin="360" fromJunction="J7" toJunction="J6" end="420" vehsPerHour="48.61752269231744" departLane="free"/>
  <flow id="JF35359" begin="360" fromJunction="J6" toJunction="J5" end="420" vehsPerHour="55.90781541144534" departLane="free"/>
  <flow id="JF35360" begin="360" fromJunction="J6" toJunction="J4" end="420" vehsPerHour="41.52543831422757" departLane="free"/>
  <flow id="JF35361" begin="360" fromJunction="J6" toJunction="J7" end="420" vehsPerHour="59.20535678958278" departLane="free"/>
  <flow id="JF35362" begin="360" fromJunction="J5" toJunction="J0" end="420" vehsPerHour="45.4082263170949" departLane="free"/>
  <flow id="JF35363" begin="360" fromJunction="J5" toJunction="J3" end="420" vehsPerHour="21.45052078974876" departLane="free"/>
  <flow id="JF35364" begin="360" fromJunction="J4" toJunction="J0" end="420" vehsPerHour="17.935602233434917" departLane="free"/>
  <flow id="JF35365" begin="360" fromJunction="J4" toJunction="J3" end="420" vehsPerHour="33.54665394868016" departLane="free"/>
  <flow id="JF35366" begin="360" fromJunction="J7" toJunction="J0" end="420" vehsPerHour="2.866818264063477" departLane="free"/>
  <flow id="JF35367" begin="360" fromJunction="J7" toJunction="J3" end="420" vehsPerHour="53.82618560016606" departLane="free"/>
  <flow id="JF35368" begin="360" fromJunction="J6" toJunction="J0" end="420" vehsPerHour="50.823757750280706" departLane="free"/>
  <flow id="JF35369" begin="360" fromJunction="J6" toJunction="J3" end="420" vehsPerHour="0.09947476447427858" departLane="free"/>
  <flow id="JF35370" begin="420" fromJunction="J0" toJunction="J3" end="480" vehsPerHour="113.58667808307317" departLane="free"/>
  <flow id="JF35371" begin="420" fromJunction="J3" toJunction="J0" end="480" vehsPerHour="29.23667674509241" departLane="free"/>
  <flow id="JF35372" begin="420" fromJunction="J0" toJunction="J5" end="480" vehsPerHour="28.624786484192906" departLane="free"/>
  <flow id="JF35373" begin="420" fromJunction="J0" toJunction="J4" end="480" vehsPerHour="34.29288314420194" departLane="free"/>
  <flow id="JF35374" begin="420" fromJunction="J0" toJunction="J7" end="480" vehsPerHour="59.26712645377114" departLane="free"/>
  <flow id="JF35375" begin="420" fromJunction="J0" toJunction="J6" end="480" vehsPerHour="55.28308040450114" departLane="free"/>
  <flow id="JF35376" begin="420" fromJunction="J3" toJunction="J5" end="480" vehsPerHour="69.12926245743635" departLane="free"/>
  <flow id="JF35377" begin="420" fromJunction="J3" toJunction="J4" end="480" vehsPerHour="76.96703898573466" departLane="free"/>
  <flow id="JF35378" begin="420" fromJunction="J3" toJunction="J7" end="480" vehsPerHour="63.98249184917719" departLane="free"/>
  <flow id="JF35379" begin="420" fromJunction="J3" toJunction="J6" end="480" vehsPerHour="22.323171507862046" departLane="free"/>
  <flow id="JF35380" begin="480" fromJunction="J0" toJunction="J3" end="540" vehsPerHour="114.05876973211406" departLane="free"/>
  <flow id="JF35381" begin="480" fromJunction="J3" toJunction="J0" end="540" vehsPerHour="27.54920650932601" departLane="free"/>
  <flow id="JF35382" begin="480" fromJunction="J0" toJunction="J5" end="540" vehsPerHour="39.090874108899236" departLane="free"/>
  <flow id="JF35383" begin="480" fromJunction="J0" toJunction="J4" end="540" vehsPerHour="25.021125976405283" departLane="free"/>
  <flow id="JF35384" begin="480" fromJunction="J0" toJunction="J7" end="540" vehsPerHour="20.478021363227715" departLane="free"/>
  <flow id="JF35385" begin="480" fromJunction="J0" toJunction="J6" end="540" vehsPerHour="57.22697556494747" departLane="free"/>
  <flow id="JF35386" begin="480" fromJunction="J3" toJunction="J5" end="540" vehsPerHour="129.7557858209278" departLane="free"/>
  <flow id="JF35387" begin="480" fromJunction="J3" toJunction="J4" end="540" vehsPerHour="1.6418871787875162" departLane="free"/>
  <flow id="JF35388" begin="480" fromJunction="J3" toJunction="J7" end="540" vehsPerHour="94.41928460594809" departLane="free"/>
  <flow id="JF35389" begin="480" fromJunction="J3" toJunction="J6" end="540" vehsPerHour="31.804463035651928" departLane="free"/>
  <flow id="JF35390" begin="540" fromJunction="J0" toJunction="J3" end="600" vehsPerHour="11.366883093874515" departLane="free"/>
  <flow id="JF35391" begin="540" fromJunction="J3" toJunction="J0" end="600" vehsPerHour="116.72782838680577" departLane="free"/>
  <flow id="JF35392" begin="540" fromJunction="J0" toJunction="J5" end="600" vehsPerHour="26.30202531731696" departLane="free"/>
  <flow id="JF35393" begin="540" fromJunction="J0" toJunction="J4" end="600" vehsPerHour="59.640770468183085" departLane="free"/>
  <flow id="JF35394" begin="540" fromJunction="J0" toJunction="J7" end="600" vehsPerHour="129.8642233391768" departLane="free"/>
  <flow id="JF35395" begin="540" fromJunction="J0" toJunction="J6" end="600" vehsPerHour="1.4587414928912457" departLane="free"/>
  <flow id="JF35396" begin="540" fromJunction="J3" toJunction="J5" end="600" vehsPerHour="37.751847732090944" departLane="free"/>
  <flow id="JF35397" begin="540" fromJunction="J3" toJunction="J4" end="600" vehsPerHour="102.27451716995662" departLane="free"/>
  <flow id="JF35398" begin="540" fromJunction="J3" toJunction="J7" end="600" vehsPerHour="15.27296955837949" departLane="free"/>
  <flow id="JF35399" begin="540" fromJunction="J3" toJunction="J6" end="600" vehsPerHour="121.18906730857529" departLane="free"/>
  <flow id="JF35400" begin="600" fromJunction="J0" toJunction="J3" end="660" vehsPerHour="87.18939437949601" departLane="free"/>
  <flow id="JF35401" begin="600" fromJunction="J3" toJunction="J0" end="660" vehsPerHour="59.69067830047599" departLane="free"/>
  <flow id="JF35402" begin="600" fromJunction="J0" toJunction="J5" end="660" vehsPerHour="121.47172767816751" departLane="free"/>
  <flow id="JF35403" begin="600" fromJunction="J0" toJunction="J4" end="660" vehsPerHour="35.89093229998449" departLane="free"/>
  <flow id="JF35404" begin="600" fromJunction="J0" toJunction="J7" end="660" vehsPerHour="14.777425103532192" departLane="free"/>
  <flow id="JF35405" begin="600" fromJunction="J0" toJunction="J6" end="660" vehsPerHour="66.78926345965401" departLane="free"/>
  <flow id="JF35406" begin="600" fromJunction="J3" toJunction="J5" end="660" vehsPerHour="113.01910548407452" departLane="free"/>
  <flow id="JF35407" begin="600" fromJunction="J3" toJunction="J4" end="660" vehsPerHour="54.74265088957837" departLane="free"/>
  <flow id="JF35408" begin="600" fromJunction="J3" toJunction="J7" end="660" vehsPerHour="56.06678098794156" departLane="free"/>
  <flow id="JF35409" begin="600" fromJunction="J3" toJunction="J6" end="660" vehsPerHour="111.62716272358836" departLane="free"/>
  <flow id="JF35410" begin="600" fromJunction="J5" toJunction="J4" end="660" vehsPerHour="27.112759391199116" departLane="free"/>
  <flow id="JF35411" begin="600" fromJunction="J5" toJunction="J7" end="660" vehsPerHour="18.134603267157555" departLane="free"/>
  <flow id="JF35412" begin="600" fromJunction="J5" toJunction="J6" end="660" vehsPerHour="46.5947393447088" departLane="free"/>
  <flow id="JF35413" begin="600" fromJunction="J4" toJunction="J5" end="660" vehsPerHour="12.756058910062778" departLane="free"/>
  <flow id="JF35414" begin="600" fromJunction="J4" toJunction="J7" end="660" vehsPerHour="19.572422401987993" departLane="free"/>
  <flow id="JF35415" begin="600" fromJunction="J4" toJunction="J6" end="660" vehsPerHour="22.00376532139156" departLane="free"/>
  <flow id="JF35416" begin="600" fromJunction="J7" toJunction="J5" end="660" vehsPerHour="62.371049497350675" departLane="free"/>
  <flow id="JF35417" begin="600" fromJunction="J7" toJunction="J4" end="660" vehsPerHour="10.386036592912722" departLane="free"/>
  <flow id="JF35418" begin="600" fromJunction="J7" toJunction="J6" end="660" vehsPerHour="23.738886828060178" departLane="free"/>
  <flow id="JF35419" begin="600" fromJunction="J6" toJunction="J5" end="660" vehsPerHour="4.822633273075356" departLane="free"/>
  <flow id="JF35420" begin="600" fromJunction="J6" toJunction="J4" end="660" vehsPerHour="64.85967703149755" departLane="free"/>
  <flow id="JF35421" begin="600" fromJunction="J6" toJunction="J7" end="660" vehsPerHour="45.5478922938794" departLane="free"/>
  <flow id="JF35422" begin="600" fromJunction="J5" toJunction="J0" end="660" vehsPerHour="63.851418501596896" departLane="free"/>
  <flow id="JF35423" begin="600" fromJunction="J5" toJunction="J3" end="660" vehsPerHour="64.47069055493431" departLane="free"/>
  <flow id="JF35424" begin="600" fromJunction="J4" toJunction="J0" end="660" vehsPerHour="15.300297113960557" departLane="free"/>
  <flow id="JF35425" begin="600" fromJunction="J4" toJunction="J3" end="660" vehsPerHour="9.333848364350388" departLane="free"/>
  <flow id="JF35426" begin="600" fromJunction="J7" toJunction="J0" end="660" vehsPerHour="34.643001836801176" departLane="free"/>
  <flow id="JF35427" begin="600" fromJunction="J7" toJunction="J3" end="660" vehsPerHour="12.34223251780814" departLane="free"/>
  <flow id="JF35428" begin="600" fromJunction="J6" toJunction="J0" end="660" vehsPerHour="34.1302302183474" departLane="free"/>
  <flow id="JF35429" begin="600" fromJunction="J6" toJunction="J3" end="660" vehsPerHour="9.049550002062457" departLane="free"/>
  <flow id="JF35430" begin="660" fromJunction="J0" toJunction="J3" end="720" vehsPerHour="19.97667800233485" departLane="free"/>
  <flow id="JF35431" begin="660" fromJunction="J3" toJunction="J0" end="720" vehsPerHour="72.17961449282714" departLane="free"/>
  <flow id="JF35432" begin="660" fromJunction="J0" toJunction="J5" end="720" vehsPerHour="78.77869030495636" departLane="free"/>
  <flow id="JF35433" begin="660" fromJunction="J0" toJunction="J4" end="720" vehsPerHour="73.43220297780275" departLane="free"/>
  <flow id="JF35434" begin="660" fromJunction="J0" toJunction="J7" end="720" vehsPerHour="8.64029734194229" departLane="free"/>
  <flow id="JF35435" begin="660" fromJunction="J0" toJunction="J6" end="720" vehsPerHour="125.6016293009465" departLane="free"/>
  <flow id="JF35436" begin="660" fromJunction="J3" toJunction="J5" end="720" vehsPerHour="68.16781838560249" departLane="free"/>
  <flow id="JF35437" begin="660" fromJunction="J3" toJunction="J4" end="720" vehsPerHour="13.52917014943645" departLane="free"/>
  <flow id="JF35438" begin="660" fromJunction="J3" toJunction="J7" end="720" vehsPerHour="3.1406893462512375" departLane="free"/>
  <flow id="JF35439" begin="660" fromJunction="J3" toJunction="J6" end="720" vehsPerHour="62.317125959459275" departLane="free"/>
  <flow id="JF35440" begin="660" fromJunction="J5" toJunction="J4" end="720" vehsPerHour="39.243141353174074" departLane="free"/>
  <flow id="JF35441" begin="660" fromJunction="J5" toJunction="J7" end="720" vehsPerHour="37.76763712398424" departLane="free"/>
  <flow id="JF35442" begin="660" fromJunction="J5" toJunction="J6" end="720" vehsPerHour="57.59551116136166" departLane="free"/>
  <flow id="JF35443" begin="660" fromJunction="J4" toJunction="J5" end="720" vehsPerHour="42.8323061648494" departLane="free"/>
  <flow id="JF35444" begin="660" fromJunction="J4" toJunction="J7" end="720" vehsPerHour="23.03381493137264" departLane="free"/>
  <flow id="JF35445" begin="660" fromJunction="J4" toJunction="J6" end="720" vehsPerHour="20.823630201301402" departLane="free"/>
  <flow id="JF35446" begin="660" fromJunction="J7" toJunction="J5" end="720" vehsPerHour="24.79589542040573" departLane="free"/>
  <flow id="JF35447" begin="660" fromJunction="J7" toJunction="J4" end="720" vehsPerHour="63.760490814851934" departLane="free"/>
  <flow id="JF35448" begin="660" fromJunction="J7" toJunction="J6" end="720" vehsPerHour="23.00971100155965" departLane="free"/>
  <flow id="JF35449" begin="660" fromJunction="J6" toJunction="J5" end="720" vehsPerHour="62.72014576227584" departLane="free"/>
  <flow id="JF35450" begin="660" fromJunction="J6" toJunction="J4" end="720" vehsPerHour="16.963494092503293" departLane="free"/>