<?xml version="1.0" encoding="UTF-8"?>
<routes xmlns:xsi="http://www.w3.org/2001/XMLSchema-instance" xsi:noNamespaceSchemaLocation="http://sumo.dlr.de/xsd/routes_file.xsd">
  <flow id="JF29000" begin="0" fromJunction="J0" toJunction="J3" end="60" vehsPerHour="80.92249051469425" departLane="free"/>
  <flow id="JF29001" begin="0" fromJunction="J3" toJunction="J0" end="60" vehsPerHour="126.578615601859" departLane="free"/>
  <flow id="JF29002" begin="0" fromJunction="J0" toJunction="J5" end="60" vehsPerHour="68.15690431608247" departLane="free"/>
  <flow id="JF29003" begin="0" fromJunction="J0" toJunction="J4" end="60" vehsPerHour="85.69764726332173" departLane="free"/>
  <flow id="JF29004" begin="0" fromJunction="J0" toJunction="J7" end="60" vehsPerHour="124.4141681475155" departLane="free"/>
  <flow id="JF29005" begin="0" fromJunction="J0" toJunction="J6" end="60" vehsPerHour="6.671411356052892" departLane="free"/>
  <flow id="JF29006" begin="0" fromJunction="J3" toJunction="J5" end="60" vehsPerHour="39.93756974066173" departLane="free"/>
  <flow id="JF29007" begin="0" fromJunction="J3" toJunction="J4" end="60" vehsPerHour="63.22449457816555" departLane="free"/>
  <flow id="JF29008" begin="0" fromJunction="J3" toJunction="J7" end="60" vehsPerHour="87.46057564590576" departLane="free"/>
  <flow id="JF29009" begin="0" fromJunction="J3" toJunction="J6" end="60" vehsPerHour="81.25635166857981" departLane="free"/>
  <flow id="JF29010" begin="0" fromJunction="J5" toJunction="J4" end="60" vehsPerHour="51.65750448962817" departLane="free"/>
  <flow id="JF29011" begin="0" fromJunction="J5" toJunction="J7" end="60" vehsPerHour="15.47567186192405" departLane="free"/>
  <flow id="JF29012" begin="0" fromJunction="J5" toJunction="J6" end="60" vehsPerHour="49.30339573921885" departLane="free"/>
  <flow id="JF29013" begin="0" fromJunction="J4" toJunction="J5" end="60" vehsPerHour="47.34924809545532" departLane="free"/>
  <flow id="JF29014" begin="0" fromJunction="J4" toJunction="J7" end="60" vehsPerHour="10.7104966970923" departLane="free"/>
  <flow id="JF29015" begin="0" fromJunction="J4" toJunction="J6" end="60" vehsPerHour="7.912517290256398" departLane="free"/>
  <flow id="JF29016" begin="0" fromJunction="J7" toJunction="J5" end="60" vehsPerHour="48.993056619632895" departLane="free"/>
  <flow id="JF29017" begin="0" fromJunction="J7" toJunction="J4" end="60" vehsPerHour="13.058249954904408" departLane="free"/>
  <flow id="JF29018" begin="0" fromJunction="J7" toJunction="J6" end="60" vehsPerHour="45.27446620611995" departLane="free"/>
  <flow id="JF29019" begin="0" fromJunction="J6" toJunction="J5" end="60" vehsPerHour="2.6979996984160297" departLane="free"/>
  <flow id="JF29020" begin="0" fromJunction="J6" toJunction="J4" end="60" vehsPerHour="53.41101264353922" departLane="free"/>
  <flow id="JF29021" begin="0" fromJunction="J6" toJunction="J7" end="60" vehsPerHour="52.6650719394464" departLane="free"/>
  <flow id="JF29022" begin="0" fromJunction="J5" toJunction="J0" end="60" vehsPerHour="15.805599034778014" departLane="free"/>
  <flow id="JF29023" begin="0" fromJunction="J5" toJunction="J3" end="60" vehsPerHour="11.931992434571224" departLane="free"/>
  <flow id="JF29024" begin="0" fromJunction="J4" toJunction="J0" end="60" vehsPerHour="47.030525658233294" departLane="free"/>
  <flow id="JF29025" begin="0" fromJunction="J4" toJunction="J3" end="60" vehsPerHour="4.574714463756959" departLane="free"/>
  <flow id="JF29026" begin="0" fromJunction="J7" toJunction="J0" end="60" vehsPerHour="35.33918143897466" departLane="free"/>
  <flow id="JF29027" begin="0" fromJunction="J7" toJunction="J3" end="60" vehsPerHour="62.278887876680514" departLane="free"/>
  <flow id="JF29028" begin="0" fromJunction="J6" toJunction="J0" end="60" vehsPerHour="53.50760611333338" departLane="free"/>
  <flow id="JF29029" begin="0" fromJunction="J6" toJunction="J3" end="60" vehsPerHour="18.03976747727169" departLane="free"/>
  <flow id="JF29030" begin="60" fromJunction="J0" toJunction="J3" end="120" vehsPerHour="114.06129656580454" departLane="free"/>
  <flow id="JF29031" begin="60" fromJunction="J3" toJunction="J0" end="120" vehsPerHour="4.7624976205148775" departLane="free"/>
  <flow id="JF29032" begin="60" fromJunction="J0" toJunction="J5" end="120" vehsPerHour="45.79197827171214" departLane="free"/>
  <flow id="JF29033" begin="60" fromJunction="J0" toJunction="J4" end="120" vehsPerHour="85.49628619500069" departLane="free"/>
  <flow id="JF29034" begin="60" fromJunction="J0" toJunction="J7" end="120" vehsPerHour="10.928162640234607" departLane="free"/>
  <flow id="JF29035" begin="60" fromJunction="J0" toJunction="J6" end="120" vehsPerHour="48.32700238781521" departLane="free"/>
  <flow id="JF29036" begin="60" fromJunction="J3" toJunction="J5" end="120" vehsPerHour="71.33448273046237" departLane="free"/>
  <flow id="JF29037" begin="60" fromJunction="J3" toJunction="J4" end="120" vehsPerHour="0.2635497660818706" departLane="free"/>
  <flow id="JF29038" begin="60" fromJunction="J3" toJunction="J7" end="120" vehsPerHour="11.87485185185821" departLane="free"/>
  <flow id="JF29039" begin="60" fromJunction="J3" toJunction="J6" end="120" vehsPerHour="54.37794060086058" departLane="free"/>
  <flow id="JF29040" begin="60" fromJunction="J5" toJunction="J4" end="120" vehsPerHour="20.1450868705965" departLane="free"/>
  <flow id="JF29041" begin="60" fromJunction="J5" toJunction="J7" end="120" vehsPerHour="40.78882458817867" departLane="free"/>
  <flow id="JF29042" begin="60" fromJunction="J5" toJunction="J6" end="120" vehsPerHour="1.95571706836005" departLane="free"/>
  <flow id="JF29043" begin="60" fromJunction="J4" toJunction="J5" end="120" vehsPerHour="32.612526243030665" departLane="free"/>
  <flow id="JF29044" begin="60" fromJunction="J4" toJunction="J7" end="120" vehsPerHour="11.400461942987409" departLane="free"/>
  <flow id="JF29045" begin="60" fromJunction="J4" toJunction="J6" end="120" vehsPerHour="54.92758724256743" departLane="free"/>
  <flow id="JF29046" begin="60" fromJunction="J7" toJunction="J5" end="120" vehsPerHour="55.62018341200487" departLane="free"/>
  <flow id="JF29047" begin="60" fromJunction="J7" toJunction="J4" end="120" vehsPerHour="37.9794832662602" departLane="free"/>
  <flow id="JF29048" begin="60" fromJunction="J7" toJunction="J6" end="120" vehsPerHour="21.470978121855204" departLane="free"/>
  <flow id="JF29049" begin="60" fromJunction="J6" toJunction="J5" end="120" vehsPerHour="7.905249974294444" departLane="free"/>
  <flow id="JF29050" begin="60" fromJunction="J6" toJunction="J4" end="120" vehsPerHour="13.026974995861366" departLane="free"/>
  <flow id="JF29051" begin="60" fromJunction="J6" toJunction="J7" end="120" vehsPerHour="59.393235948320836" departLane="free"/>
  <flow id="JF29052" begin="60" fromJunction="J5" toJunction="J0" end="120" vehsPerHour="52.209951051498344" departLane="free"/>
  <flow id="JF29053" begin="60" fromJunction="J5" toJunction="J3" end="120" vehsPerHour="61.92278806928864" departLane="free"/>
  <flow id="JF29054" begin="60" fromJunction="J4" toJunction="J0" end="120" vehsPerHour="48.071074812290696" departLane="free"/>
  <flow id="JF29055" begin="60" fromJunction="J4" toJunction="J3" end="120" vehsPerHour="45.61650227186442" departLane="free"/>
  <flow id="JF29056" begin="60" fromJunction="J7" toJunction="J0" end="120" vehsPerHour="10.558723385514273" departLane="free"/>
  <flow id="JF29057" begin="60" fromJunction="J7" toJunction="J3" end="120" vehsPerHour="36.899465600517146" departLane="free"/>
  <flow id="JF29058" begin="60" fromJunction="J6" toJunction="J0" end="120" vehsPerHour="27.394169365933987" departLane="free"/>
  <flow id="JF29059" begin="60" fromJunction="J6" toJunction="J3" end="120" vehsPerHour="2.4987401928067943" departLane="free"/>
  <flow id="JF29060" begin="120" fromJunction="J0" toJunction="J3" end="180" vehsPerHour="19.797511844514972" departLane="free"/>
  <flow id="JF29061" begin="120" fromJunction="J3" toJunction="J0" end="180" vehsPerHour="112.45013074749214" departLane="free"/>
  <flow id="JF29062" begin="120" fromJunction="J0" toJunction="J5" end="180" vehsPerHour="82.96604509712665" departLane="free"/>
  <flow id="JF29063" begin="120" fromJunction="J0" toJunction="J4" end="180" vehsPerHour="89.94141348156805" departLane="free"/>
  <flow id="JF29064" begin="120" fromJunction="J0" toJunction="J7" end="180" vehsPerHour="97.0068036672722" departLane="free"/>
  <flow id="JF29065" begin="120" fromJunction="J0" toJunction="J6" end="180" vehsPerHour="66.55402172360373" departLane="free"/>
  <flow id="JF29066" begin="120" fromJunction="J3" toJunction="J5" end="180" vehsPerHour="45.11169196987911" departLane="free"/>
  <flow id="JF29067" begin="120" fromJunction="J3" toJunction="J4" end="180" vehsPerHour="76.03056796233452" departLane="free"/>
  <flow id="JF29068" begin="120" fromJunction="J3" toJunction="J7" end="180" vehsPerHour="11.026762946996188" departLane="free"/>
  <flow id="JF29069" begin="120" fromJunction="J3" toJunction="J6" end="180" vehsPerHour="29.239826091944405" departLane="free"/>
  <flow id="JF29070" begin="120" fromJunction="J5" toJunction="J4" end="180" vehsPerHour="52.50515557948288" departLane="free"/>
  <flow id="JF29071" begin="120" fromJunction="J5" toJunction="J7" end="180" vehsPerHour="39.68063067054802" departLane="free"/>
  <flow id="JF29072" begin="120" fromJunction="J5" toJunction="J6" end="180" vehsPerHour="9.72584625456438" departLane="free"/>
  <flow id="JF29073" begin="120" fromJunction="J4" toJunction="J5" end="180" vehsPerHour="16.088937768190615" departLane="free"/>
  <flow id="JF29074" begin="120" fromJunction="J4" toJunction="J7" end="180" vehsPerHour="10.865136024656275" departLane="free"/>
  <flow id="JF29075" begin="120" fromJunction="J4" toJunction="J6" end="180" vehsPerHour="22.218354920447133" departLane="free"/>
  <flow id="JF29076" begin="120" fromJunction="J7" toJunction="J5" end="180" vehsPerHour="18.056499396594308" departLane="free"/>
  <flow id="JF29077" begin="120" fromJunction="J7" toJunction="J4" end="180" vehsPerHour="13.088422249107245" departLane="free"/>
  <flow id="JF29078" begin="120" fromJunction="J7" toJunction="J6" end="180" vehsPerHour="41.42465730095585" departLane="free"/>
  <flow id="JF29079" begin="120" fromJunction="J6" toJunction="J5" end="180" vehsPerHour="10.203336056841836" departLane="free"/>
  <flow id="JF29080" begin="120" fromJunction="J6" toJunction="J4" end="180" vehsPerHour="43.10961127680546" departLane="free"/>
  <flow id="JF29081" begin="120" fromJunction="J6" toJunction="J7" end="180" vehsPerHour="53.1299428985545" departLane="free"/>
  <flow id="JF29082" begin="120" fromJunction="J5" toJunction="J0" end="180" vehsPerHour="58.00608811598482" departLane="free"/>
  <flow id="JF29083" begin="120" fromJunction="J5" toJunction="J3" end="180" vehsPerHour="26.28575571508877" departLane="free"/>
  <flow id="JF29084" begin="120" fromJunction="J4" toJunction="J0" end="180" vehsPerHour="39.938887519914516" departLane="free"/>
  <flow id="JF29085" begin="120" fromJunction="J4" toJunction="J3" end="180" vehsPerHour="21.809709520957835" departLane="free"/>
  <flow id="JF29086" begin="120" fromJunction="J7" toJunction="J0" end="180" vehsPerHour="56.6328084657276" departLane="free"/>
  <flow id="JF29087" begin="120" fromJunction="J7" toJunction="J3" end="180" vehsPerHour="18.723149021987723" departLane="free"/>
  <flow id="JF29088" begin="120" fromJunction="J6" toJunction="J0" end="180" vehsPerHour="30.366141067723273" departLane="free"/>
  <flow id="JF29089" begin="120" fromJunction="J6" toJunction="J3" end="180" vehsPerHour="46.02910855324445" departLane="free"/>
  <flow id="JF29090" begin="180" fromJunction="J0" toJunction="J3" end="240" vehsPerHour="66.11121335018507" departLane="free"/>
  <flow id="JF29091" begin="180" fromJunction="J3" toJunction="J0" end="240" vehsPerHour="74.47795277849039" departLane="free"/>
  <flow id="JF29092" begin="180" fromJunction="J0" toJunction="J5" end="240" vehsPerHour="73.58309240174039" departLane="free"/>
  <flow id="JF29093" begin="180" fromJunction="J0" toJunction="J4" end="240" vehsPerHour="134.2691526097141" departLane="free"/>
  <flow id="JF29094" begin="180" fromJunction="J0" toJunction="J7" end="240" vehsPerHour="105.60116880959087" departLane="free"/>
  <flow id="JF29095" begin="180" fromJunction="J0" toJunction="J6" end="240" vehsPerHour="89.42786761956201" departLane="free"/>
  <flow id="JF29096" begin="180" fromJunction="J3" toJunction="J5" end="240" vehsPerHour="2.0019285208793742" departLane="free"/>
  <flow id="JF29097" begin="180" fromJunction="J3" toJunction="J4" end="240" vehsPerHour="27.414703483356284" departLane="free"/>
  <flow id="JF29098" begin="180" fromJunction="J3" toJunction="J7" end="240" vehsPerHour="79.15846656841451" departLane="free"/>
  <flow id="JF29099" begin="180" fromJunction="J3" toJunction="J6" end="240" vehsPerHour="22.972249200320384" departLane="free"/>
  <flow id="JF29100" begin="240" fromJunction="J0" toJunction="J3" end="300" vehsPerHour="25.69328981895726" departLane="free"/>
  <flow id="JF29101" begin="240" fromJunction="J3" toJunction="J0" end="300" vehsPerHour="110.509122203466" departLane="free"/>
  <flow id="JF29102" begin="240" fromJunction="J0" toJunction="J5" end="300" vehsPerHour="47.86094388280652" departLane="free"/>
  <flow id="JF29103" begin="240" fromJunction="J0" toJunction="J4" end="300" vehsPerHour="97.46687664861928" departLane="free"/>
  <flow id="JF29104" begin="240" fromJunction="J0" toJunction="J7" end="300" vehsPerHour="84.45503777288599" departLane="free"/>
  <flow id="JF29105" begin="240" fromJunction="J0" toJunction="J6" end="300" vehsPerHour="94.57225582933125" departLane="free"/>
  <flow id="JF29106" begin="240" fromJunction="J3" toJunction="J5" end="300" vehsPerHour="30.08607087867038" departLane="free"/>
  <flow id="JF29107" begin="240" fromJunction="J3" toJunction="J4" end="300" vehsPerHour="99.1801534813172" departLane="free"/>
  <flow id="JF29108" begin="240" fromJunction="J3" toJunction="J7" end="300" vehsPerHour="102.20682560379686" departLane="free"/>
  <flow id="JF29109" begin="240" fromJunction="J3" toJunction="J6" end="300" vehsPerHour="77.48309185820443" departLane="free"/>
  <flow id="JF29110" begin="240" fromJunction="J5" toJunction="J4" end="300" vehsPerHour="27.59934144535746" departLane="free"/>
  <flow id="JF29111" begin="240" fromJunction="J5" toJunction="J7" end="300" vehsPerHour="2.8829690575331957" departLane="free"/>
  <flow id="JF29112" begin="240" fromJunction="J5" toJunction="J6" end="300" vehsPerHour="1.7762396972347416" departLane="free"/>
  <flow id="JF29113" begin="240" fromJunction="J4" toJunction="J5" end="300" vehsPerHour="3.0967620126584765" departLane="free"/>
  <flow id="JF29114" begin="240" fromJunction="J4" toJunction="J7" end="300" vehsPerHour="42.34885360767065" departLane="free"/>
  <flow id="JF29115" begin="240" fromJunction="J4" toJunction="J6" end="300" vehsPerHour="1.4718312466239378" departLane="free"/>
  <flow id="JF29116" begin="240" fromJunction="J7" toJunction="J5" end="300" vehsPerHour="9.436043163478365" departLane="free"/>
  <flow id="JF29117" begin="240" fromJunction="J7" toJunction="J4" end="300" vehsPerHour="23.515696343609825" departLane="free"/>
  <flow id="JF29118" begin="240" fromJunction="J7" toJunction="J6" end="300" vehsPerHour="14.637454975716333" departLane="free"/>
  <flow id="JF29119" begin="240" fromJunction="J6" toJunction="J5" end="300" vehsPerHour="3.716007581332518" departLane="free"/>
  <flow id="JF29120" begin="240" fromJunction="J6" toJunction="J4" end="300" vehsPerHour="49.47748629685634" departLane="free"/>
  <flow id="JF29121" begin="240" fromJunction="J6" toJunction="J7" end="300" vehsPerHour="48.87469351195305" departLane="free"/>
  <flow id="JF29122" begin="240" fromJunction="J5" toJunction="J0" end="300" vehsPerHour="10.927620229016176" departLane="free"/>
  <flow id="JF29123" begin="240" fromJunction="J5" toJunction="J3" end="300" vehsPerHour="7.667491253328991" departLane="free"/>
  <flow id="JF29124" begin="240" fromJunction="J4" toJunction="J0" end="300" vehsPerHour="40.34916940758067" departLane="free"/>
  <flow id="JF29125" begin="240" fromJunction="J4" toJunction="J3" end="300" vehsPerHour="21.216499762001614" departLane="free"/>
  <flow id="JF29126" begin="240" fromJunction="J7" toJunction="J0" end="300" vehsPerHour="33.477920270920094" departLane="free"/>
  <flow id="JF29127" begin="240" fromJunction="J7" toJunction="J3" end="300" vehsPerHour="53.452818407719924" departLane="free"/>
  <flow id="JF29128" begin="240" fromJunction="J6" toJunction="J0" end="300" vehsPerHour="7.019113770948549" departLane="free"/>
  <flow id="JF29129" begin="240" fromJunction="J6" toJunction="J3" end="300" vehsPerHour="1.0598282263382672" departLane="free"/>
  <flow id="JF29130" begin="300" fromJunction="J0" toJunction="J3" end="360" vehsPerHour="52.92791384554966" departLane="free"/>
  <flow id="JF29131" begin="300" fromJunction="J3" toJunction="J0" end="360" vehsPerHour="108.00191668664071" departLane="free"/>
  <flow id="JF29132" begin="300" fromJunction="J0" toJunction="J5" end="360" vehsPerHour="122.72307307530129" departLane="free"/>
  <flow id="JF29133" begin="300" fromJunction="J0" toJunction="J4" end="360" vehsPerHour="116.03656807322604" departLane="free"/>
  <flow id="JF29134" begin="300" fromJunction="J0" toJunction="J7" end="360" vehsPerHour="57.690222090840756" departLane="free"/>
  <flow id="JF29135" begin="300" fromJunction="J0" toJunction="J6" end="360" vehsPerHour="80.04305596695309" departLane="free"/>
  <flow id="JF29136" begin="300" fromJunction="J3" toJunction="J5" end="360" vehsPerHour="92.19743284488675" departLane="free"/>
  <flow id="JF29137" begin="300" fromJunction="J3" toJunction="J4" end="360" vehsPerHour="6.903660553471004" departLane="free"/>
  <flow id="JF29138" begin="300" fromJunction="J3" toJunction="J7" end="360" vehsPerHour="116.8037609995009" departLane="free"/>
  <flow id="JF29139" begin="300" fromJunction="J3" toJunction="J6" end="360" vehsPerHour="90.25672919073402" departLane="free"/>
  <flow id="JF29140" begin="300" fromJunction="J5" toJunction="J4" end="360" vehsPerHour="50.3817721786252" departLane="free"/>
  <flow id="JF29141" begin="300" fromJunction="J5" toJunction="J7" end="360" vehsPerHour="13.306571368494561" departLane="free"/>
  <flow id="JF29142" begin="300" fromJunction="J5" toJunction="J6" end="360" vehsPerHour="5.459508299265297" departLane="free"/>
  <flow id="JF29143" begin="300" fromJunction="J4" toJunction="J5" end="360" vehsPerHour="36.975828557830454" departLane="free"/>
  <flow id="JF29144" begin="300" fromJunction="J4" toJunction="J7" end="360" vehsPerHour="49.31400087641443" departLane="free"/>
  <flow id="JF29145" begin="300" fromJunction="J4" toJunction="J6" end="360" vehsPerHour="47.92589012535761" departLane="free"/>
  <flow id="JF29146" begin="300" fromJunction="J7" toJunction="J5" end="360" vehsPerHour="60.5556572775387" departLane="free"/>
  <flow id="JF29147" begin="300" fromJunction="J7" toJunction="J4" end="360" vehsPerHour="32.66159795196793" departLane="free"/>
  <flow id="JF29148" begin="300" fromJunction="J7" toJunction="J6" end="360" vehsPerHour="59.30689774800375" departLane="free"/>
  <flow id="JF29149" begin="300" fromJunction="J6" toJunction="J5" end="360" vehsPerHour="43.666783363651824" departLane="free"/>
  <flow id="JF29150" begin="300" fromJunction="J6" toJunction="J4" end="360" vehsPerHour="18.72545584177181" departLane="free"/>
  <flow id="JF29151" begin="300" fromJunction="J6" toJunction="J7" end="360" vehsPerHour="57.51299549256334" departLane="free"/>
  <flow id="JF29152" begin="300" fromJunction="J5" toJunction="J0" end="360" vehsPerHour="19.13085492387592" departLane="free"/>
  <flow id="JF29153" begin="300" fromJunction="J5" toJunction="J3" end="360" vehsPerHour="41.201866101413465" departLane="free"/>
  <flow id="JF29154" begin="300" fromJunction="J4" toJunction="J0" end="360" vehsPerHour="15.92856708962733" departLane="free"/>
  <flow id="JF29155" begin="300" fromJunction="J4" toJunction="J3" end="360" vehsPerHour="46.41511174242568" departLane="free"/>
  <flow id="JF29156" begin="300" fromJunction="J7" toJunction="J0" end="360" vehsPerHour="62.50481907586601" departLane="free"/>
  <flow id="JF29157" begin="300" fromJunction="J7" toJunction="J3" end="360" vehsPerHour="36.880495554526185" departLane="free"/>
  <flow id="JF29158" begin="300" fromJunction="J6" toJunction="J0" end="360" vehsPerHour="14.802965170220952" departLane="free"/>
  <flow id="JF29159" begin="300" fromJunction="J6" toJunction="J3" end="360" vehsPerHour="6.627697839798111" departLane="free"/>
  <flow id="JF29160" begin="360" fromJunction="J0" toJunction="J3" end="420" vehsPerHour="92.41842629676016" departLane="free"/>
  <flow id="JF29161" begin="360" fromJunction="J3" toJunction="J0" end="420" vehsPerHour="50.92327921538261" departLane="free"/>
  <flow id="JF29162" begin="360" fromJunction="J0" toJunction="J5" end="420" vehsPerHour="117.12479185160427" departLane="free"/>
  <flow id="JF29163" begin="360" fromJunction="J0" toJunction="J4" end="420" vehsPerHour="39.04052721594453" departLane="free"/>
  <flow id="JF29164" begin="360" fromJunction="J0" toJunction="J7" end="420" vehsPerHour="100.81909280334392" departLane="free"/>
  <flow id="JF29165" begin="360" fromJunction="J0" toJunction="J6" end="420" vehsPerHour="56.72108567953824" departLane="free"/>
  <flow id="JF29166" begin="360" fromJunction="J3" toJunction="J5" end="420" vehsPerHour="115.45925632131247" departLane="free"/>
  <flow id="JF29167" begin="360" fromJunction="J3" toJunction="J4" end="420" vehsPerHour="82.90606998514487" departLane="free"/>
  <flow id="JF29168" begin="360" fromJunction="J3" toJunction="J7" end="420" vehsPerHour="102.00129776808492" departLane="free"/>
  <flow id="JF29169" begin="360" fromJunction="J3" toJunction="J6" end="420" vehsPerHour="34.945880634381155" departLane="free"/>
  <flow id="JF29170" begin="360" fromJunction="J5" toJunction="J4" end="420" vehsPerHour="2.913877426262283" departLane="free"/>
  <flow id="JF29171" begin="360" fromJunction="J5" toJunction="J7" end="420" vehsPerHour="67.29366562447635" departLane="free"/>
  <flow id="JF29172" begin="360" fromJunction="J5" toJunction="J6" end="420" vehsPerHour="9.068801009565522" departLane="free"/>
  <flow id="JF29173" begin="360" fromJunction="J4" toJunction="J5" end="420" vehsPerHour="45.61788128989975" departLane="free"/>
  <flow id="JF29174" begin="360" fromJunction="J4" toJunction="J7" end="420" vehsPerHour="4.441942439609622" departLane="free"/>
  <flow id="JF29175" begin="360" fromJunction="J4" toJunction="J6" end="420" vehsPerHour="35.41734060253532" departLane="free"/>
  <flow id="JF29176" begin="360" fromJunction="J7" toJunction="J5" end="420" vehsPerHour="60.767781405604474" departLane="free"/>
  <flow id="JF29177" begin="360" fromJunction="J7" toJunction="J4" end="420" vehsPerHour="26.365304424807444" departLane="free"/>
  <flow id="JF29178" begin="360" fromJunction="J7" toJunction="J6" end="420" vehsPerHour="3.385124509456515" departLane="free"/>
  <flow id="JF29179" begin="360" fromJunction="J6" toJunction="J5" end="420" vehsPerHour="20.504317821128193" departLane="free"/>
  <flow id="JF29180" begin="360" fromJunction="J6" toJunction="J4" end="420" vehsPerHour="21.771683891421052" departLane="free"/>
  <flow id="JF29181" begin="360" fromJunction="J6" toJunction="J7" end="420" vehsPerHour="63.89558216557824" departLane="free"/>
  <flow id="JF29182" begin="360" fromJunction="J5" toJunction="J0" end="420" vehsPerHour="46.57597791658849" departLane="free"/>
  <flow id="JF29183" begin="360" fromJunction="J5" toJunction="J3" end="420" vehsPerHour="23.033144961108842" departLane="free"/>
  <flow id="JF29184" begin="360" fromJunction="J4" toJunction="J0" end="420" vehsPerHour="62.252422615820386" departLane="free"/>
  <flow id="JF29185" begin="360" fromJunction="J4" toJunction="J3" end="420" vehsPerHour="48.556098469651616" departLane="free"/>
  <flow id="JF29186" begin="360" fromJunction="J7" toJunction="J0" end="420" vehsPerHour="59.394220911110395" departLane="free"/>
  <flow id="JF29187" begin="360" fromJunction="J7" toJunction="J3" end="420" vehsPerHour="36.341198583331526" departLane="free"/>
  <flow id="JF29188" begin="360" fromJunction="J6" toJunction="J0" end="420" vehsPerHour="45.52029478787405" departLane="free"/>
  <flow id="JF29189" begin="360" fromJunction="J6" toJunction="J3" end="420" vehsPerHour="13.80533833007466" departLane="free"/>
  <flow id="JF29190" begin="420" fromJunction="J0" toJunction="J3" end="480" vehsPerHour="40.87218382290273" departLane="free"/>
  <flow id="JF29191" begin="420" fromJunction="J3" toJunction="J0" end="480" vehsPerHour="30.325469356122436" departLane="free"/>
  <flow id="JF29192" begin="420" fromJunction="J0" toJunction="J5" end="480" vehsPerHour="93.9461473701411" departLane="free"/>
  <flow id="JF29193" begin="420" fromJunction="J0" toJunction="J4" end="480" vehsPerHour="132.09579540795065" departLane="free"/>
  <flow id="JF29194" begin="420" fromJunction="J0" toJunction="J7" end="480" vehsPerHour="110.02036021795475" departLane="free"/>
  <flow id="JF29195" begin="420" fromJunction="J0" toJunction="J6" end="480" vehsPerHour="35.329752438329855" departLane="free"/>
  <flow id="JF29196" begin="420" fromJunction="J3" toJunction="J5" end="480" vehsPerHour="113.2744278041966" departLane="free"/>
  <flow id="JF29197" begin="420" fromJunction="J3" toJunction="J4" end="480" vehsPerHour="59.9007646475374" departLane="free"/>
  <flow id="JF29198" begin="420" fromJunction="J3" toJunction="J7" end="480" vehsPerHour="134.57140525171658" departLane="free"/>
  <flow id="JF29199" begin="420" fromJunction="J3" toJunction="J6" end="480" vehsPerHour="93.03958178710323" departLane="free"/>
  <flow id="JF29200" begin="420" fromJunction="J5" toJunction="J4" end="480" vehsPerHour="26.907478539785565" departLane="free"/>
  <flow id="JF29201" begin="420" fromJunction="J5" toJunction="J7" end="480" vehsPerHour="54.7719276814491" departLane="free"/>
  <flow id="JF29202" begin="420" fromJunction="J5" toJunction="J6" end="480" vehsPerHour="44.44973267492762" departLane="free"/>
  <flow id="JF29203" begin="420" fromJunction="J4" toJunction="J5" end="480" vehsPerHour="20.203661440278783" departLane="free"/>
  <flow id="JF29204" begin="420" fromJunction="J4" toJunction="J7" end="480" vehsPerHour="10.613914546359432" departLane="free"/>
  <flow id="JF29205" begin="420" fromJunction="J4" toJunction="J6" end="480" vehsPerHour="4.975846981703071" departLane="free"/>
  <flow id="JF29206" begin="420" fromJunction="J7" toJunction="J5" end="480" vehsPerHour="58.46172801933567" departLane="free"/>
  <flow id="JF29207" begin="420" fromJunction="J7" toJunction="J4" end="480" vehsPerHour="17.014576251938852" departLane="free"/>
  <flow id="JF29208" begin="420" fromJunction="J7" toJunction="J6" end="480" vehsPerHour="61.70789509757516" departLane="free"/>
  <flow id="JF29209" begin="420" fromJunction="J6" toJunction="J5" end="480" vehsPerHour="64.15299869716648" departLane="free"/>
  <flow id="JF29210" begin="420" fromJunction="J6" toJunction="J4" end="480" vehsPerHour="67.03669864067184" departLane="free"/>
  <flow id="JF29211" begin="420" fromJunction="J6" toJunction="J7" end="480" vehsPerHour="60.00527353942513" departLane="free"/>
  <flow id="JF29212" begin="420" fromJunction="J5" toJunction="J0" end="480" vehsPerHour="10.525991482236508" departLane="free"/>
  <flow id="JF29213" begin="420" fromJunction="J5" toJunction="J3" end="480" vehsPerHour="43.586251447060484" departLane="free"/>
  <flow id="JF29214" begin="420" fromJunction="J4" toJunction="J0" end="480" vehsPerHour="17.102480229079198" departLane="free"/>
  <flow id="JF29215" begin="420" fromJunction="J4" toJunction="J3" end="480" vehsPerHour="14.893094483526392" departLane="free"/>
  <flow id="JF29216" begin="420" fromJunction="J7" toJunction="J0" end="480" vehsPerHour="24.863264213566858" departLane="free"/>
  <flow id="JF29217" begin="420" fromJunction="J7" toJunction="J3" end="480" vehsPerHour="22.273313476575815" departLane="free"/>
  <flow id="JF29218" begin="420" fromJunction="J6" toJunction="J0" end="480" vehsPerHour="21.989632560527742" departLane="free"/>
  <flow id="JF29219" begin="420" fromJunction="J6" toJunction="J3" end="480" vehsPerHour="21.31376176257033" departLane="free"/>
  <flow id="JF29220" begin="480" fromJunction="J0" toJunction="J3" end="540" vehsPerHour="59.65240182170487" departLane="free"/>
  <flow id="JF29221" begin="480" fromJunction="J3" toJunction="J0" end="540" vehsPerHour="76.90514564612769" departLane="free"/>
  <flow id="JF29222" begin="480" fromJunction="J0" toJunction="J5" end="540" vehsPerHour="117.98133319614297" departLane="free"/>
  <flow id="JF29223" begin="480" fromJunction="J0" toJunction="J4" end="540" vehsPerHour="96.20538881975435" departLane="free"/>
  <flow id="JF29224" begin="480" fromJunction="J0" toJunction="J7" end="540" vehsPerHour="14.82267060547357" departLane="free"/>
  <flow id="JF29225" begin="480" fromJunction="J0" toJunction="J6" end="540" vehsPerHour="30.707508677391832" departLane="free"/>
  <flow id="JF29226" begin="480" fromJunction="J3" toJunction="J5" end="540" vehsPerHour="42.38718491587189" departLane="free"/>
  <flow id="JF29227" begin="480" fromJunction="J3" toJunction="J4" end="540" vehsPerHour="31.827088988402867" departLane="free"/>
  <flow id="JF29228" begin="480" fromJunction="J3" toJunction="J7" end="540" vehsPerHour="15.134580309863638" departLane="free"/>
  <flow id="JF29229" begin="480" fromJunction="J3" toJunction="J6" end="540" vehsPerHour="13.730609231065111" departLane="free"/>
  <flow id="JF29230" begin="480" fromJunction="J5" toJunction="J4" end="540" vehsPerHour="38.853381715239536" departLane="free"/>