<?xml version="1.0" encoding="UTF-8"?>
<routes xmlns:xsi="http://www.w3.org/2001/XMLSchema-instance" xsi:noNamespaceSchemaLocation="http://sumo.dlr.de/xsd/routes_file.xsd">
  <flow id="JF37180" begin="0" fromJunction="J0" toJunction="J3" end="60" vehsPerHour="45.51758469416412" departLane="free"/>
  <flow id="JF37181" begin="0" fromJunction="J3" toJunction="J0" end="60" vehsPerHour="136.77438299604063" departLane="free"/>
  <flow id="JF37182" begin="0" fromJunction="J0" toJunction="J5" end="60" vehsPerHour="95.62072259000816" departLane="free"/>
  <flow id="JF37183" begin="0" fromJunction="J0" toJunction="J4" end="60" vehsPerHour="132.6722054006216" departLane="free"/>
  <flow id="JF37184" begin="0" fromJunction="J0" toJunction="J7" end="60" vehsPerHour="77.64904172329996" departLane="free"/>
  <flow id="JF37185" begin="0" fromJunction="J0" toJunction="J6" end="60" vehsPerHour="130.29375463525676" departLane="free"/>
  <flow id="JF37186" begin="0" fromJunction="J3" toJunction="J5" end="60" vehsPerHour="73.33466084059302" departLane="free"/>
  <flow id="JF37187" begin="0" fromJunction="J3" toJunction="J4" end="60" vehsPerHour="44.202241661275025" departLane="free"/>
  <flow id="JF37188" begin="0" fromJunction="J3" toJunction="J7" end="60" vehsPerHour="124.27410309121674" departLane="free"/>
  <flow id="JF37189" begin="0" fromJunction="J3" toJunction="J6" end="60" vehsPerHour="88.96361852164766" departLane="free"/>
  <flow id="JF37190" begin="0" fromJunction="J5" toJunction="J4" end="60" vehsPerHour="12.729671630777098" departLane="free"/>
  <flow id="JF37191" begin="0" fromJunction="J5" toJunction="J7" end="60" vehsPerHour="19.10813610084263" departLane="free"/>
  <flow id="JF37192" begin="0" fromJunction="J5" toJunction="J6" end="60" vehsPerHour="66.2484942914845" departLane="free"/>
  <flow id="JF37193" begin="0" fromJunction="J4" toJunction="J5" end="60" vehsPerHour="7.410583259905995" departLane="free"/>
  <flow id="JF37194" begin="0" fromJunction="J4" toJunction="J7" end="60" vehsPerHour="17.960390413482944" departLane="free"/>
  <flow id="JF37195" begin="0" fromJunction="J4" toJunction="J6" end="60" vehsPerHour="7.437778518183657" departLane="free"/>
  <flow id="JF37196" begin="0" fromJunction="J7" toJunction="J5" end="60" vehsPerHour="34.79589289216069" departLane="free"/>
  <flow id="JF37197" begin="0" fromJunction="J7" toJunction="J4" end="60" vehsPerHour="4.194393070602637" departLane="free"/>
  <flow id="JF37198" begin="0" fromJunction="J7" toJunction="J6" end="60" vehsPerHour="50.09535288219603" departLane="free"/>
  <flow id="JF37199" begin="0" fromJunction="J6" toJunction="J5" end="60" vehsPerHour="42.67695404962566" departLane="free"/>
  <flow id="JF37200" begin="0" fromJunction="J6" toJunction="J4" end="60" vehsPerHour="50.26418797434324" departLane="free"/>
  <flow id="JF37201" begin="0" fromJunction="J6" toJunction="J7" end="60" vehsPerHour="51.96677985759158" departLane="free"/>
  <flow id="JF37202" begin="0" fromJunction="J5" toJunction="J0" end="60" vehsPerHour="30.804497779109703" departLane="free"/>
  <flow id="JF37203" begin="0" fromJunction="J5" toJunction="J3" end="60" vehsPerHour="2.128261359193408" departLane="free"/>
  <flow id="JF37204" begin="0" fromJunction="J4" toJunction="J0" end="60" vehsPerHour="43.798465780081436" departLane="free"/>
  <flow id="JF37205" begin="0" fromJunction="J4" toJunction="J3" end="60" vehsPerHour="40.40914992037678" departLane="free"/>
  <flow id="JF37206" begin="0" fromJunction="J7" toJunction="J0" end="60" vehsPerHour="5.956617154256792" departLane="free"/>
  <flow id="JF37207" begin="0" fromJunction="J7" toJunction="J3" end="60" vehsPerHour="22.843219838049777" departLane="free"/>
  <flow id="JF37208" begin="0" fromJunction="J6" toJunction="J0" end="60" vehsPerHour="6.215926767755528" departLane="free"/>
  <flow id="JF37209" begin="0" fromJunction="J6" toJunction="J3" end="60" vehsPerHour="28.34478749039812" departLane="free"/>
  <flow id="JF37210" begin="60" fromJunction="J0" toJunction="J3" end="120" vehsPerHour="104.1542183149535" departLane="free"/>
  <flow id="JF37211" begin="60" fromJunction="J3" toJunction="J0" end="120" vehsPerHour="65.61152583248" departLane="free"/>
  <flow id="JF37212" begin="60" fromJunction="J0" toJunction="J5" end="120" vehsPerHour="69.86342639780091" departLane="free"/>
  <flow id="JF37213" begin="60" fromJunction="J0" toJunction="J4" end="120" vehsPerHour="25.069691765231582" departLane="free"/>
  <flow id="JF37214" begin="60" fromJunction="J0" toJunction="J7" end="120" vehsPerHour="54.98642941417593" departLane="free"/>
  <flow id="JF37215" begin="60" fromJunction="J0" toJunction="J6" end="120" vehsPerHour="31.85647140446349" departLane="free"/>
  <flow id="JF37216" begin="60" fromJunction="J3" toJunction="J5" end="120" vehsPerHour="10.209379312474537" departLane="free"/>
  <flow id="JF37217" begin="60" fromJunction="J3" toJunction="J4" end="120" vehsPerHour="93.37542651895686" departLane="free"/>
  <flow id="JF37218" begin="60" fromJunction="J3" toJunction="J7" end="120" vehsPerHour="107.69979999365839" departLane="free"/>
  <flow id="JF37219" begin="60" fromJunction="J3" toJunction="J6" end="120" vehsPerHour="17.472151239766895" departLane="free"/>
  <flow id="JF37220" begin="60" fromJunction="J5" toJunction="J4" end="120" vehsPerHour="3.3941216096022604" departLane="free"/>
  <flow id="JF37221" begin="60" fromJunction="J5" toJunction="J7" end="120" vehsPerHour="54.2468980923687" departLane="free"/>
  <flow id="JF37222" begin="60" fromJunction="J5" toJunction="J6" end="120" vehsPerHour="35.18748396639323" departLane="free"/>
  <flow id="JF37223" begin="60" fromJunction="J4" toJunction="J5" end="120" vehsPerHour="47.56553108410686" departLane="free"/>
  <flow id="JF37224" begin="60" fromJunction="J4" toJunction="J7" end="120" vehsPerHour="65.4504650572028" departLane="free"/>
  <flow id="JF37225" begin="60" fromJunction="J4" toJunction="J6" end="120" vehsPerHour="0.3504203967321145" departLane="free"/>
  <flow id="JF37226" begin="60" fromJunction="J7" toJunction="J5" end="120" vehsPerHour="39.82324854506731" departLane="free"/>
  <flow id="JF37227" begin="60" fromJunction="J7" toJunction="J4" end="120" vehsPerHour="12.436236363326687" departLane="free"/>
  <flow id="JF37228" begin="60" fromJunction="J7" toJunction="J6" end="120" vehsPerHour="24.37144677289558" departLane="free"/>
  <flow id="JF37229" begin="60" fromJunction="J6" toJunction="J5" end="120" vehsPerHour="35.74461710405917" departLane="free"/>
  <flow id="JF37230" begin="60" fromJunction="J6" toJunction="J4" end="120" vehsPerHour="60.22995718246018" departLane="free"/>
  <flow id="JF37231" begin="60" fromJunction="J6" toJunction="J7" end="120" vehsPerHour="43.71542963933172" departLane="free"/>
  <flow id="JF37232" begin="60" fromJunction="J5" toJunction="J0" end="120" vehsPerHour="25.188436067725263" departLane="free"/>
  <flow id="JF37233" begin="60" fromJunction="J5" toJunction="J3" end="120" vehsPerHour="7.144864500880586" departLane="free"/>
  <flow id="JF37234" begin="60" fromJunction="J4" toJunction="J0" end="120" vehsPerHour="22.17692251715794" departLane="free"/>
  <flow id="JF37235" begin="60" fromJunction="J4" toJunction="J3" end="120" vehsPerHour="1.2359202723384355" departLane="free"/>
  <flow id="JF37236" begin="60" fromJunction="J7" toJunction="J0" end="120" vehsPerHour="54.91974736238643" departLane="free"/>
  <flow id="JF37237" begin="60" fromJunction="J7" toJunction="J3" end="120" vehsPerHour="28.501061918366528" departLane="free"/>
  <flow id="JF37238" begin="60" fromJunction="J6" toJunction="J0" end="120" vehsPerHour="22.21881313398931" departLane="free"/>
  <flow id="JF37239" begin="60" fromJunction="J6" toJunction="J3" end="120" vehsPerHour="12.463734970057084" departLane="free"/>
  <flow id="JF37240" begin="120" fromJunction="J0" toJunction="J3" end="180" vehsPerHour="20.895611233753232" departLane="free"/>
  <flow id="JF37241" begin="120" fromJunction="J3" toJunction="J0" end="180" vehsPerHour="57.62403956487008" departLane="free"/>
  <flow id="JF37242" begin="120" fromJunction="J0" toJunction="J5" end="180" vehsPerHour="114.98119081817889" departLane="free"/>
  <flow id="JF37243" begin="120" fromJunction="J0" toJunction="J4" end="180" vehsPerHour="125.99180589060455" departLane="free"/>
  <flow id="JF37244" begin="120" fromJunction="J0" toJunction="J7" end="180" vehsPerHour="4.22028292164747" departLane="free"/>
  <flow id="JF37245" begin="120" fromJunction="J0" toJunction="J6" end="180" vehsPerHour="78.08475777434093" departLane="free"/>
  <flow id="JF37246" begin="120" fromJunction="J3" toJunction="J5" end="180" vehsPerHour="104.48067024343806" departLane="free"/>
  <flow id="JF37247" begin="120" fromJunction="J3" toJunction="J4" end="180" vehsPerHour="134.05589404332838" departLane="free"/>
  <flow id="JF37248" begin="120" fromJunction="J3" toJunction="J7" end="180" vehsPerHour="120.95133753893104" departLane="free"/>
  <flow id="JF37249" begin="120" fromJunction="J3" toJunction="J6" end="180" vehsPerHour="81.60290828660068" departLane="free"/>
  <flow id="JF37250" begin="120" fromJunction="J5" toJunction="J4" end="180" vehsPerHour="16.96783069031813" departLane="free"/>
  <flow id="JF37251" begin="120" fromJunction="J5" toJunction="J7" end="180" vehsPerHour="13.135740319796353" departLane="free"/>
  <flow id="JF37252" begin="120" fromJunction="J5" toJunction="J6" end="180" vehsPerHour="66.93088066783172" departLane="free"/>
  <flow id="JF37253" begin="120" fromJunction="J4" toJunction="J5" end="180" vehsPerHour="34.900127836943824" departLane="free"/>
  <flow id="JF37254" begin="120" fromJunction="J4" toJunction="J7" end="180" vehsPerHour="39.07090707001759" departLane="free"/>
  <flow id="JF37255" begin="120" fromJunction="J4" toJunction="J6" end="180" vehsPerHour="56.17258726311994" departLane="free"/>
  <flow id="JF37256" begin="120" fromJunction="J7" toJunction="J5" end="180" vehsPerHour="43.990866085702976" departLane="free"/>
  <flow id="JF37257" begin="120" fromJunction="J7" toJunction="J4" end="180" vehsPerHour="55.76048931477308" departLane="free"/>
  <flow id="JF37258" begin="120" fromJunction="J7" toJunction="J6" end="180" vehsPerHour="37.27695252883548" departLane="free"/>
  <flow id="JF37259" begin="120" fromJunction="J6" toJunction="J5" end="180" vehsPerHour="13.304449430871166" departLane="free"/>
  <flow id="JF37260" begin="120" fromJunction="J6" toJunction="J4" end="180" vehsPerHour="16.69093106428307" departLane="free"/>
  <flow id="JF37261" begin="120" fromJunction="J6" toJunction="J7" end="180" vehsPerHour="48.26826880682957" departLane="free"/>
  <flow id="JF37262" begin="120" fromJunction="J5" toJunction="J0" end="180" vehsPerHour="1.9942258180979704" departLane="free"/>
  <flow id="JF37263" begin="120" fromJunction="J5" toJunction="J3" end="180" vehsPerHour="2.2885121027991637" departLane="free"/>
  <flow id="JF37264" begin="120" fromJunction="J4" toJunction="J0" end="180" vehsPerHour="23.897230470378165" departLane="free"/>
  <flow id="JF37265" begin="120" fromJunction="J4" toJunction="J3" end="180" vehsPerHour="61.21676506252904" departLane="free"/>
  <flow id="JF37266" begin="120" fromJunction="J7" toJunction="J0" end="180" vehsPerHour="37.44839154979923" departLane="free"/>
  <flow id="JF37267" begin="120" fromJunction="J7" toJunction="J3" end="180" vehsPerHour="11.398041553785665" departLane="free"/>
  <flow id="JF37268" begin="120" fromJunction="J6" toJunction="J0" end="180" vehsPerHour="24.698460351671095" departLane="free"/>
  <flow id="JF37269" begin="120" fromJunction="J6" toJunction="J3" end="180" vehsPerHour="31.27001176017338" departLane="free"/>
  <flow id="JF37270" begin="180" fromJunction="J0" toJunction="J3" end="240" vehsPerHour="19.714748099431056" departLane="free"/>
  <flow id="JF37271" begin="180" fromJunction="J3" toJunction="J0" end="240" vehsPerHour="111.03798714137297" departLane="free"/>
  <flow id="JF37272" begin="180" fromJunction="J0" toJunction="J5" end="240" vehsPerHour="115.91851886383303" departLane="free"/>
  <flow id="JF37273" begin="180" fromJunction="J0" toJunction="J4" end="240" vehsPerHour="107.91817730403405" departLane="free"/>
  <flow id="JF37274" begin="180" fromJunction="J0" toJunction="J7" end="240" vehsPerHour="8.294163864067462" departLane="free"/>
  <flow id="JF37275" begin="180" fromJunction="J0" toJunction="J6" end="240" vehsPerHour="4.770141313928286" departLane="free"/>
  <flow id="JF37276" begin="180" fromJunction="J3" toJunction="J5" end="240" vehsPerHour="68.04937770308088" departLane="free"/>
  <flow id="JF37277" begin="180" fromJunction="J3" toJunction="J4" end="240" vehsPerHour="118.67754544897825" departLane="free"/>
  <flow id="JF37278" begin="180" fromJunction="J3" toJunction="J7" end="240" vehsPerHour="33.490270199436985" departLane="free"/>
  <flow id="JF37279" begin="180" fromJunction="J3" toJunction="J6" end="240" vehsPerHour="68.11986153718566" departLane="free"/>
  <flow id="JF37280" begin="240" fromJunction="J0" toJunction="J3" end="300" vehsPerHour="115.4322773779443" departLane="free"/>
  <flow id="JF37281" begin="240" fromJunction="J3" toJunction="J0" end="300" vehsPerHour="76.99595018749257" departLane="free"/>
  <flow id="JF37282" begin="240" fromJunction="J0" toJunction="J5" end="300" vehsPerHour="63.9280636874333" departLane="free"/>
  <flow id="JF37283" begin="240" fromJunction="J0" toJunction="J4" end="300" vehsPerHour="89.78901984788872" departLane="free"/>
  <flow id="JF37284" begin="240" fromJunction="J0" toJunction="J7" end="300" vehsPerHour="81.15113730800088" departLane="free"/>
  <flow id="JF37285" begin="240" fromJunction="J0" toJunction="J6" end="300" vehsPerHour="127.65850158685006" departLane="free"/>
  <flow id="JF37286" begin="240" fromJunction="J3" toJunction="J5" end="300" vehsPerHour="27.225996652306247" departLane="free"/>
  <flow id="JF37287" begin="240" fromJunction="J3" toJunction="J4" end="300" vehsPerHour="85.39356261406738" departLane="free"/>
  <flow id="JF37288" begin="240" fromJunction="J3" toJunction="J7" end="300" vehsPerHour="116.24540276424628" departLane="free"/>
  <flow id="JF37289" begin="240" fromJunction="J3" toJunction="J6" end="300" vehsPerHour="50.77512491775196" departLane="free"/>
  <flow id="JF37290" begin="240" fromJunction="J5" toJunction="J4" end="300" vehsPerHour="23.050384173976276" departLane="free"/>
  <flow id="JF37291" begin="240" fromJunction="J5" toJunction="J7" end="300" vehsPerHour="0.2887509891606144" departLane="free"/>
  <flow id="JF37292" begin="240" fromJunction="J5" toJunction="J6" end="300" vehsPerHour="51.5383657937854" departLane="free"/>
  <flow id="JF37293" begin="240" fromJunction="J4" toJunction="J5" end="300" vehsPerHour="66.24158783326126" departLane="free"/>
  <flow id="JF37294" begin="240" fromJunction="J4" toJunction="J7" end="300" vehsPerHour="26.415734814269406" departLane="free"/>
  <flow id="JF37295" begin="240" fromJunction="J4" toJunction="J6" end="300" vehsPerHour="3.6875847900159924" departLane="free"/>
  <flow id="JF37296" begin="240" fromJunction="J7" toJunction="J5" end="300" vehsPerHour="39.107317688863425" departLane="free"/>
  <flow id="JF37297" begin="240" fromJunction="J7" toJunction="J4" end="300" vehsPerHour="19.697200962492015" departLane="free"/>
  <flow id="JF37298" begin="240" fromJunction="J7" toJunction="J6" end="300" vehsPerHour="47.967700066921225" departLane="free"/>
  <flow id="JF37299" begin="240" fromJunction="J6" toJunction="J5" end="300" vehsPerHour="25.60761074797043" departLane="free"/>
  <flow id="JF37300" begin="240" fromJunction="J6" toJunction="J4" end="300" vehsPerHour="37.0268346854334" departLane="free"/>
  <flow id="JF37301" begin="240" fromJunction="J6" toJunction="J7" end="300" vehsPerHour="65.01971914301149" departLane="free"/>
  <flow id="JF37302" begin="240" fromJunction="J5" toJunction="J0" end="300" vehsPerHour="56.871231546823516" departLane="free"/>
  <flow id="JF37303" begin="240" fromJunction="J5" toJunction="J3" end="300" vehsPerHour="46.35145871834822" departLane="free"/>
  <flow id="JF37304" begin="240" fromJunction="J4" toJunction="J0" end="300" vehsPerHour="60.945978144486304" departLane="free"/>
  <flow id="JF37305" begin="240" fromJunction="J4" toJunction="J3" end="300" vehsPerHour="16.376629617212938" departLane="free"/>
  <flow id="JF37306" begin="240" fromJunction="J7" toJunction="J0" end="300" vehsPerHour="62.24855874529898" departLane="free"/>
  <flow id="JF37307" begin="240" fromJunction="J7" toJunction="J3" end="300" vehsPerHour="35.60131620655328" departLane="free"/>
  <flow id="JF37308" begin="240" fromJunction="J6" toJunction="J0" end="300" vehsPerHour="48.27005752368161" departLane="free"/>
  <flow id="JF37309" begin="240" fromJunction="J6" toJunction="J3" end="300" vehsPerHour="58.23989856968013" departLane="free"/>
  <flow id="JF37310" begin="300" fromJunction="J0" toJunction="J3" end="360" vehsPerHour="0.8817750883024582" departLane="free"/>
  <flow id="JF37311" begin="300" fromJunction="J3" toJunction="J0" end="360" vehsPerHour="129.0269253518684" departLane="free"/>
  <flow id="JF37312" begin="300" fromJunction="J0" toJunction="J5" end="360" vehsPerHour="114.52315309562674" departLane="free"/>
  <flow id="JF37313" begin="300" fromJunction="J0" toJunction="J4" end="360" vehsPerHour="124.87911172239839" departLane="free"/>
  <flow id="JF37314" begin="300" fromJunction="J0" toJunction="J7" end="360" vehsPerHour="98.87388280281503" departLane="free"/>
  <flow id="JF37315" begin="300" fromJunction="J0" toJunction="J6" end="360" vehsPerHour="96.51970720468489" departLane="free"/>
  <flow id="JF37316" begin="300" fromJunction="J3" toJunction="J5" end="360" vehsPerHour="34.15881905784269" departLane="free"/>
  <flow id="JF37317" begin="300" fromJunction="J3" toJunction="J4" end="360" vehsPerHour="51.894063332626835" departLane="free"/>
  <flow id="JF37318" begin="300" fromJunction="J3" toJunction="J7" end="360" vehsPerHour="137.35624582442932" departLane="free"/>
  <flow id="JF37319" begin="300" fromJunction="J3" toJunction="J6" end="360" vehsPerHour="5.182305073217922" departLane="free"/>
  <flow id="JF37320" begin="360" fromJunction="J0" toJunction="J3" end="420" vehsPerHour="76.53748373234257" departLane="free"/>
  <flow id="JF37321" begin="360" fromJunction="J3" toJunction="J0" end="420" vehsPerHour="61.21552981752409" departLane="free"/>
  <flow id="JF37322" begin="360" fromJunction="J0" toJunction="J5" end="420" vehsPerHour="118.46439740324821" departLane="free"/>
  <flow id="JF37323" begin="360" fromJunction="J0" toJunction="J4" end="420" vehsPerHour="73.36917078015095" departLane="free"/>
  <flow id="JF37324" begin="360" fromJunction="J0" toJunction="J7" end="420" vehsPerHour="7.159055358238373" departLane="free"/>
  <flow id="JF37325" begin="360" fromJunction="J0" toJunction="J6" end="420" vehsPerHour="7.508545139518625" departLane="free"/>
  <flow id="JF37326" begin="360" fromJunction="J3" toJunction="J5" end="420" vehsPerHour="14.12096648290379" departLane="free"/>
  <flow id="JF37327" begin="360" fromJunction="J3" toJunction="J4" end="420" vehsPerHour="45.758581946825885" departLane="free"/>
  <flow id="JF37328" begin="360" fromJunction="J3" toJunction="J7" end="420" vehsPerHour="60.13556147948078" departLane="free"/>
  <flow id="JF37329" begin="360" fromJunction="J3" toJunction="J6" end="420" vehsPerHour="125.06964175066493" departLane="free"/>
  <flow id="JF37330" begin="420" fromJunction="J0" toJunction="J3" end="480" vehsPerHour="33.36449254093903" departLane="free"/>
  <flow id="JF37331" begin="420" fromJunction="J3" toJunction="J0" end="480" vehsPerHour="42.019562634273036" departLane="free"/>
  <flow id="JF37332" begin="420" fromJunction="J0" toJunction="J5" end="480" vehsPerHour="34.13167604269671" departLane="free"/>
  <flow id="JF37333" begin="420" fromJunction="J0" toJunction="J4" end="480" vehsPerHour="54.14672443309674" departLane="free"/>
  <flow id="JF37334" begin="420" fromJunction="J0" toJunction="J7" end="480" vehsPerHour="26.350102422712546" departLane="free"/>
  <flow id="JF37335" begin="420" fromJunction="J0" toJunction="J6" end="480" vehsPerHour="136.72083033846727" departLane="free"/>
  <flow id="JF37336" begin="420" fromJunction="J3" toJunction="J5" end="480" vehsPerHour="30.545575862978247" departLane="free"/>
  <flow id="JF37337" begin="420" fromJunction="J3" toJunction="J4" end="480" vehsPerHour="41.25067848552413" departLane="free"/>
  <flow id="JF37338" begin="420" fromJunction="J3" toJunction="J7" end="480" vehsPerHour="104.64700042158633" departLane="free"/>
  <flow id="JF37339" begin="420" fromJunction="J3" toJunction="J6" end="480" vehsPerHour="42.310116860001536" departLane="free"/>
  <flow id="JF37340" begin="420" fromJunction="J5" toJunction="J4" end="480" vehsPerHour="13.253296542332665" departLane="free"/>
  <flow id="JF37341" begin="420" fromJunction="J5" toJunction="J7" end="480" vehsPerHour="27.473468568076868" departLane="free"/>
  <flow id="JF37342" begin="420" fromJunction="J5" toJunction="J6" end="480" vehsPerHour="52.24693878845191" departLane="free"/>
  <flow id="JF37343" begin="420" fromJunction="J4" toJunction="J5" end="480" vehsPerHour="20.099163371444167" departLane="free"/>
  <flow id="JF37344" begin="420" fromJunction="J4" toJunction="J7" end="480" vehsPerHour="55.84049024823839" departLane="free"/>
  <flow id="JF37345" begin="420" fromJunction="J4" toJunction="J6" end="480" vehsPerHour="42.8475246236695" departLane="free"/>
  <flow id="JF37346" begin="420" fromJunction="J7" toJunction="J5" end="480" vehsPerHour="62.442340078518065" departLane="free"/>
  <flow id="JF37347" begin="420" fromJunction="J7" toJunction="J4" end="480" vehsPerHour="45.57773187056853" departLane="free"/>
  <flow id="JF37348" begin="420" fromJunction="J7" toJunction="J6" end="480" vehsPerHour="46.10890628554271" departLane="free"/>
  <flow id="JF37349" begin="420" fromJunction="J6" toJunction="J5" end="480" vehsPerHour="22.773907637985882" departLane="free"/>
  <flow id="JF37350" begin="420" fromJunction="J6" toJunction="J4" end="480" vehsPerHour="13.53916515060709" departLane="free"/>
  <flow id="JF37351" begin="420" fromJunction="J6" toJunction="J7" end="480" vehsPerHour="45.12457829536599" departLane="free"/>
  <flow id="JF37352" begin="420" fromJunction="J5" toJunction="J0" end="480" vehsPerHour="62.5540203780973" departLane="free"/>
  <flow id="JF37353" begin="420" fromJunction="J5" toJunction="J3" end="480" vehsPerHour="20.873627583829812" departLane="free"/>
  <flow id="JF37354" begin="420" fromJunction="J4" toJunction="J0" end="480" vehsPerHour="17.838335351665474" departLane="free"/>
  <flow id="JF37355" begin="420" fromJunction="J4" toJunction="J3" end="480" vehsPerHour="5.29638032349508" departLane="free"/>
  <flow id="JF37356" begin="420" fromJunction="J7" toJunction="J0" end="480" vehsPerHour="64.15384580955426" departLane="free"/>
  <flow id="JF37357" begin="420" fromJunction="J7" toJunction="J3" end="480" vehsPerHour="11.725782925993743" departLane="free"/>
  <flow id="JF37358" begin="420" fromJunction="J6" toJunction="J0" end="480" vehsPerHour="25.136053243974217" departLane="free"/>
  <flow id="JF37359" begin="420" fromJunction="J6" toJunction="J3" end="480" vehsPerHour="28.202024165250382" departLane="free"/>
  <flow id="JF37360" begin="480" fromJunction="J0" toJunction="J3" end="540" vehsPerHour="113.93838431097076" departLane="free"/>
  <flow id="JF37361" begin="480" fromJunction="J3" toJunction="J0" end="540" vehsPerHour="13.246316930579768" departLane="free"/>
  <flow id="JF37362" begin="480" fromJunction="J0" toJunction="J5" end="540" vehsPerHour="6.302369105307057" departLane="free"/>
  <flow id="JF37363" begin="480" fromJunction="J0" toJunction="J4" end="540" vehsPerHour="94.04109761335089" departLane="free"/>
  <flow id="JF37364" begin="480" fromJunction="J0" toJunction="J7" end="540" vehsPerHour="106.00683356035239" departLane="free"/>
  <flow id="JF37365" begin="480" fromJunction="J0" toJunction="J6" end="540" vehsPerHour="130.38204936870048" departLane="free"/>
  <flow id="JF37366" begin="480" fromJunction="J3" toJunction="J5" end="540" vehsPerHour="99.3296525471727" departLane="free"/>
  <flow id="JF37367" begin="480" fromJunction="J3" toJunction="J4" end="540" vehsPerHour="127.23345544785565" departLane="free"/>
  <flow id="JF37368" begin="480" fromJunction="J3" toJunction="J7" end="540" vehsPerHour="78.48501052898571" departLane="free"/>
  <flow id="JF37369" begin="480" fromJunction="J3" toJunction="J6" end="540" vehsPerHour="3.174157437163659" departLane="free"/>
  <flow id="JF37370" begin="480" fromJunction="J5" toJunction="J4" end="540" vehsPerHour="14.514596157970237" departLane="free"/>
  <flow id="JF37371" begin="480" fromJunction="J5" toJunction="J7" end="540" vehsPerHour="45.49519597198937" departLane="free"/>
  <flow id="JF37372" begin="480" fromJunction="J5" toJunction="J6" end="540" vehsPerHour="29.812229766215612" departLane="free"/>
  <flow id="JF37373" begin="480" fromJunction="J4" toJunction="J5" end="540" vehsPerHour="24.037975277838566" departLane="free"/>
  <flow id="JF37374" begin="480" fromJunction="J4" toJunction="J7" end="540" vehsPerHour="3.9711655550293465" departLane="free"/>
  <flow id="JF37375" begin="480" fromJunction="J4" toJunction="J6" end="540" vehsPerHour="48.808796623712624" departLane="free"/>
  <flow id="JF37376" begin="480" fromJunction="J7" toJunction="J5" end="540" vehsPerHour="59.0202125577236" departLane="free"/>
  <flow id="JF37377" begin="480" fromJunction="J7" toJunction="J4" end="540" vehsPerHour="5.124546072374996" departLane="free"/>
  <flow id="JF37378" begin="480" fromJunction="J7" toJunction="J6" end="540" vehsPerHour="19.735603738199064" departLane="free"/>
  <flow id="JF37379" begin="480" fromJunction="J6" toJunction="J5" end="540" vehsPerHour="53.95891170313818" departLane="free"/>
  <flow id="JF37380" begin="480" fromJunction="J6" toJunction="J4" end="540" vehsPerHour="23.164174940391533" departLane="free"/>
  <flow id="JF37381" begin="480" fromJunction="J6" toJunction="J7" end="540" vehsPerHour="19.853868122448784" departLane="free"/>
  <flow id="JF37382" begin="480" fromJunction="J5" toJunction="J0" end="540" vehsPerHour="12.340227349271895" departLane="free"/>
  <flow id="JF37383" begin="480" fromJunction="J5" toJunction="J3" end="540" vehsPerHour="67.60374378498592" departLane="free"/>
  <flow id="JF37384" begin="480" fromJunction="J4" toJunction="J0" end="540" vehsPerHour="31.16437012979222" departLane="free"/>
  <flow id="JF37385" begin="480" fromJunction="J4" toJunction="J3" end="540" vehsPerHour="59.935811330072994" departLane="free"/>
  <flow id="JF37386" begin="480" fromJunction="J7" toJunction="J0" end="540" vehsPerHour="14.874854611444752" departLane="free"/>
  <flow id="JF37387" begin="480" fromJunction="J7" toJunction="J3" end="540" vehsPerHour="43.220464116215055" departLane="free"/>
  <flow id="JF37388" begin="480" fromJunction="J6" toJunction="J0" end="540" vehsPerHour="15.510126713597126" departLane="free"/>
  <flow id="JF37389" begin="480" fromJunction="J6" toJunction="J3" end="540" vehsPerHour="21.734402251498675" departLane="free"/>
  <flow id="JF37390" begin="540" fromJunction="J0" toJunction="J3" end="600" vehsPerHour="124.13901040899991" departLane="free"/>
  <flow id="JF37391" begin="540" fromJunction="J3" toJunction="J0" end="600" vehsPerHour="91.09122580352683" departLane="free"/>
  <flow id="JF37392" begin="540" fromJunction="J0" toJunction="J5" end="600" vehsPerHour="46.43287785827476" departLane="free"/>
  <flow id="JF37393" begin="540" fromJunction="J0" toJunction="J4" end="600" vehsPerHour="52.94230680122313" departLane="free"/>
  <flow id="JF37394" begin="540" fromJunction="J0" toJunction="J7" end="600" vehsPerHour="64.42835905231738" departLane="free"/>
  <flow id="JF37395" begin="540" fromJunction="J0" toJunction="J6" end="600" vehsPerHour="29.19080134643315" departLane="free"/>
  <flow id="JF37396" begin="540" fromJunction="J3" toJunction="J5" end="600" vehsPerHour="29.204366844305255" departLane="free"/>
  <flow id="JF37397" begin="540" fromJunction="J3" toJunction="J4" end="600" vehsPerHour="48.75965873214805" departLane="free"/>
  <flow id="JF37398" begin="540" fromJunction="J3" toJunction="J7" end="600" vehsPerHour="127.45063447264268" departLane="free"/>
  <flow id="JF37399" begin="540" fromJunction="J3" toJunction="J6" end="600" vehsPerHour="110.64300281348008" departLane="free"/>
  <flow id="JF37400" begin="540" fromJunction="J5" toJunction="J4" end="600" vehsPerHour="43.45769448291162" departLane="free"/>
  <flow id="JF37401" begin="540" fromJunction="J5" toJunction="J7" end="600" vehsPerHour="20.323762388138018" departLane="free"/>
  <flow id="JF37402" begin="540" fromJunction="J5" toJunction="J6" end="600" vehsPerHour="52.569523186647544" departLane="free"/>
  <flow id="JF37403" begin="540" fromJunction="J4" toJunction="J5" end="600" vehsPerHour="57.426529871641804" departLane="free"/>
  <flow id="JF37404" begin="540" fromJunction="J4" toJunction="J7" end="600" vehsPerHour="55.930686548795734" departLane="free"/>
  <flow id="JF37405" begin="540" fromJunction="J4" toJunction="J6" end="600" vehsPerHour="37.67650291382922" departLane="free"/>
  <flow id="JF37406" begin="540" fromJunction="J7" toJunction="J5" end="600" vehsPerHour="32.49760947817044" departLane="free"/>
  <flow id="JF37407" begin="540" fromJunction="J7" toJunction="J4" end="600" vehsPerHour="57.328035216591985" departLane="free"/>
  <flow id="JF37408" begin="540" fromJunction="J7" toJunction="J6" end="600" vehsPerHour="12.539740752496643" departLane="free"/>
  <flow id="JF37409" begin="540" fromJunction="J6" toJunction="J5" end="600" vehsPerHour="53.16270645365246" departLane="free"/>
  <flow id="JF37410" begin="540" fromJunction="J6" toJunction="J4" end="600" vehsPerHour="56.25420870499439" departLane="free"/>