<?xml version="1.0" encoding="UTF-8"?>
<routes xmlns:xsi="http://www.w3.org/2001/XMLSchema-instance" xsi:noNamespaceSchemaLocation="http://sumo.dlr.de/xsd/routes_file.xsd">
  <flow id="JF32980" begin="0" fromJunction="J0" toJunction="J3" end="60" vehsPerHour="72.46139058939808" departLane="free"/>
  <flow id="JF32981" begin="0" fromJunction="J3" toJunction="J0" end="60" vehsPerHour="26.989438367091562" departLane="free"/>
  <flow id="JF32982" begin="0" fromJunction="J0" toJunction="J5" end="60" vehsPerHour="45.05722920667139" departLane="free"/>
  <flow id="JF32983" begin="0" fromJunction="J0" toJunction="J4" end="60" vehsPerHour="90.54040306939304" departLane="free"/>
  <flow id="JF32984" begin="0" fromJunction="J0" toJunction="J7" end="60" vehsPerHour="0.16099137165583738" departLane="free"/>
  <flow id="JF32985" begin="0" fromJunction="J0" toJunction="J6" end="60" vehsPerHour="62.82782473025723" departLane="free"/>
  <flow id="JF32986" begin="0" fromJunction="J3" toJunction="J5" end="60" vehsPerHour="69.59370228619287" departLane="free"/>
  <flow id="JF32987" begin="0" fromJunction="J3" toJunction="J4" end="60" vehsPerHour="87.52813438500883" departLane="free"/>
  <flow id="JF32988" begin="0" fromJunction="J3" toJunction="J7" end="60" vehsPerHour="86.5260441351043" departLane="free"/>
  <flow id="JF32989" begin="0" fromJunction="J3" toJunction="J6" end="60" vehsPerHour="46.63927361507539" departLane="free"/>
  <flow id="JF32990" begin="0" fromJunction="J5" toJunction="J4" end="60" vehsPerHour="29.61430380310244" departLane="free"/>
  <flow id="JF32991" begin="0" fromJunction="J5" toJunction="J7" end="60" vehsPerHour="46.91516262231599" departLane="free"/>
  <flow id="JF32992" begin="0" fromJunction="J5" toJunction="J6" end="60" vehsPerHour="26.82014952568548" departLane="free"/>
  <flow id="JF32993" begin="0" fromJunction="J4" toJunction="J5" end="60" vehsPerHour="33.49381741019622" departLane="free"/>
  <flow id="JF32994" begin="0" fromJunction="J4" toJunction="J7" end="60" vehsPerHour="23.28444027022006" departLane="free"/>
  <flow id="JF32995" begin="0" fromJunction="J4" toJunction="J6" end="60" vehsPerHour="6.409971693556258" departLane="free"/>
  <flow id="JF32996" begin="0" fromJunction="J7" toJunction="J5" end="60" vehsPerHour="46.48830053926665" departLane="free"/>
  <flow id="JF32997" begin="0" fromJunction="J7" toJunction="J4" end="60" vehsPerHour="66.97845317454394" departLane="free"/>
  <flow id="JF32998" begin="0" fromJunction="J7" toJunction="J6" end="60" vehsPerHour="66.47648178516191" departLane="free"/>
  <flow id="JF32999" begin="0" fromJunction="J6" toJunction="J5" end="60" vehsPerHour="33.003411705537324" departLane="free"/>
  <flow id="JF33000" begin="0" fromJunction="J6" toJunction="J4" end="60" vehsPerHour="7.551096694629591" departLane="free"/>
  <flow id="JF33001" begin="0" fromJunction="J6" toJunction="J7" end="60" vehsPerHour="61.03035045239989" departLane="free"/>
  <flow id="JF33002" begin="0" fromJunction="J5" toJunction="J0" end="60" vehsPerHour="21.051169274187487" departLane="free"/>
  <flow id="JF33003" begin="0" fromJunction="J5" toJunction="J3" end="60" vehsPerHour="44.97651647643523" departLane="free"/>
  <flow id="JF33004" begin="0" fromJunction="J4" toJunction="J0" end="60" vehsPerHour="50.94357013030394" departLane="free"/>
  <flow id="JF33005" begin="0" fromJunction="J4" toJunction="J3" end="60" vehsPerHour="23.141258204867388" departLane="free"/>
  <flow id="JF33006" begin="0" fromJunction="J7" toJunction="J0" end="60" vehsPerHour="41.712800480812525" departLane="free"/>
  <flow id="JF33007" begin="0" fromJunction="J7" toJunction="J3" end="60" vehsPerHour="66.03452293369472" departLane="free"/>
  <flow id="JF33008" begin="0" fromJunction="J6" toJunction="J0" end="60" vehsPerHour="56.321011375460415" departLane="free"/>
  <flow id="JF33009" begin="0" fromJunction="J6" toJunction="J3" end="60" vehsPerHour="13.240477432652973" departLane="free"/>
  <flow id="JF33010" begin="60" fromJunction="J0" toJunction="J3" end="120" vehsPerHour="23.47677740554177" departLane="free"/>
  <flow id="JF33011" begin="60" fromJunction="J3" toJunction="J0" end="120" vehsPerHour="14.361034234509608" departLane="free"/>
  <flow id="JF33012" begin="60" fromJunction="J0" toJunction="J5" end="120" vehsPerHour="95.2272087639469" departLane="free"/>
  <flow id="JF33013" begin="60" fromJunction="J0" toJunction="J4" end="120" vehsPerHour="40.6077369118585" departLane="free"/>
  <flow id="JF33014" begin="60" fromJunction="J0" toJunction="J7" end="120" vehsPerHour="82.31442194280044" departLane="free"/>
  <flow id="JF33015" begin="60" fromJunction="J0" toJunction="J6" end="120" vehsPerHour="61.46453209026163" departLane="free"/>
  <flow id="JF33016" begin="60" fromJunction="J3" toJunction="J5" end="120" vehsPerHour="35.7385011333659" departLane="free"/>
  <flow id="JF33017" begin="60" fromJunction="J3" toJunction="J4" end="120" vehsPerHour="132.44179936675476" departLane="free"/>
  <flow id="JF33018" begin="60" fromJunction="J3" toJunction="J7" end="120" vehsPerHour="22.679818688195162" departLane="free"/>
  <flow id="JF33019" begin="60" fromJunction="J3" toJunction="J6" end="120" vehsPerHour="20.931469436288122" departLane="free"/>
  <flow id="JF33020" begin="60" fromJunction="J5" toJunction="J4" end="120" vehsPerHour="64.61933212976518" departLane="free"/>
  <flow id="JF33021" begin="60" fromJunction="J5" toJunction="J7" end="120" vehsPerHour="62.78875049462673" departLane="free"/>
  <flow id="JF33022" begin="60" fromJunction="J5" toJunction="J6" end="120" vehsPerHour="12.527078922759566" departLane="free"/>
  <flow id="JF33023" begin="60" fromJunction="J4" toJunction="J5" end="120" vehsPerHour="4.324291882541671" departLane="free"/>
  <flow id="JF33024" begin="60" fromJunction="J4" toJunction="J7" end="120" vehsPerHour="5.364686444111232" departLane="free"/>
  <flow id="JF33025" begin="60" fromJunction="J4" toJunction="J6" end="120" vehsPerHour="7.047205830948343" departLane="free"/>
  <flow id="JF33026" begin="60" fromJunction="J7" toJunction="J5" end="120" vehsPerHour="65.39311347522047" departLane="free"/>
  <flow id="JF33027" begin="60" fromJunction="J7" toJunction="J4" end="120" vehsPerHour="6.695858559563903" departLane="free"/>
  <flow id="JF33028" begin="60" fromJunction="J7" toJunction="J6" end="120" vehsPerHour="7.08427803487443" departLane="free"/>
  <flow id="JF33029" begin="60" fromJunction="J6" toJunction="J5" end="120" vehsPerHour="66.57285062695239" departLane="free"/>
  <flow id="JF33030" begin="60" fromJunction="J6" toJunction="J4" end="120" vehsPerHour="64.06536862885466" departLane="free"/>
  <flow id="JF33031" begin="60" fromJunction="J6" toJunction="J7" end="120" vehsPerHour="58.46950645282732" departLane="free"/>
  <flow id="JF33032" begin="60" fromJunction="J5" toJunction="J0" end="120" vehsPerHour="0.36253041069479097" departLane="free"/>
  <flow id="JF33033" begin="60" fromJunction="J5" toJunction="J3" end="120" vehsPerHour="16.891008827323493" departLane="free"/>
  <flow id="JF33034" begin="60" fromJunction="J4" toJunction="J0" end="120" vehsPerHour="31.342935456862747" departLane="free"/>
  <flow id="JF33035" begin="60" fromJunction="J4" toJunction="J3" end="120" vehsPerHour="42.53898320787583" departLane="free"/>
  <flow id="JF33036" begin="60" fromJunction="J7" toJunction="J0" end="120" vehsPerHour="65.22229874752094" departLane="free"/>
  <flow id="JF33037" begin="60" fromJunction="J7" toJunction="J3" end="120" vehsPerHour="63.86332406448832" departLane="free"/>
  <flow id="JF33038" begin="60" fromJunction="J6" toJunction="J0" end="120" vehsPerHour="16.8197079759555" departLane="free"/>
  <flow id="JF33039" begin="60" fromJunction="J6" toJunction="J3" end="120" vehsPerHour="40.491423223202766" departLane="free"/>
  <flow id="JF33040" begin="120" fromJunction="J0" toJunction="J3" end="180" vehsPerHour="125.51369586091846" departLane="free"/>
  <flow id="JF33041" begin="120" fromJunction="J3" toJunction="J0" end="180" vehsPerHour="78.11030286704879" departLane="free"/>
  <flow id="JF33042" begin="120" fromJunction="J0" toJunction="J5" end="180" vehsPerHour="8.278721887388205" departLane="free"/>
  <flow id="JF33043" begin="120" fromJunction="J0" toJunction="J4" end="180" vehsPerHour="61.67618194344189" departLane="free"/>
  <flow id="JF33044" begin="120" fromJunction="J0" toJunction="J7" end="180" vehsPerHour="39.12317946986749" departLane="free"/>
  <flow id="JF33045" begin="120" fromJunction="J0" toJunction="J6" end="180" vehsPerHour="9.861856838323039" departLane="free"/>
  <flow id="JF33046" begin="120" fromJunction="J3" toJunction="J5" end="180" vehsPerHour="94.54647079777504" departLane="free"/>
  <flow id="JF33047" begin="120" fromJunction="J3" toJunction="J4" end="180" vehsPerHour="76.70434201715962" departLane="free"/>
  <flow id="JF33048" begin="120" fromJunction="J3" toJunction="J7" end="180" vehsPerHour="41.978565710628075" departLane="free"/>
  <flow id="JF33049" begin="120" fromJunction="J3" toJunction="J6" end="180" vehsPerHour="35.04053249628583" departLane="free"/>
  <flow id="JF33050" begin="120" fromJunction="J5" toJunction="J4" end="180" vehsPerHour="50.82636786755099" departLane="free"/>
  <flow id="JF33051" begin="120" fromJunction="J5" toJunction="J7" end="180" vehsPerHour="64.2986924761927" departLane="free"/>
  <flow id="JF33052" begin="120" fromJunction="J5" toJunction="J6" end="180" vehsPerHour="41.56836605930304" departLane="free"/>
  <flow id="JF33053" begin="120" fromJunction="J4" toJunction="J5" end="180" vehsPerHour="23.62065358419293" departLane="free"/>
  <flow id="JF33054" begin="120" fromJunction="J4" toJunction="J7" end="180" vehsPerHour="60.56158634419196" departLane="free"/>
  <flow id="JF33055" begin="120" fromJunction="J4" toJunction="J6" end="180" vehsPerHour="21.180770051872983" departLane="free"/>
  <flow id="JF33056" begin="120" fromJunction="J7" toJunction="J5" end="180" vehsPerHour="27.139417141899166" departLane="free"/>
  <flow id="JF33057" begin="120" fromJunction="J7" toJunction="J4" end="180" vehsPerHour="56.78744117322723" departLane="free"/>
  <flow id="JF33058" begin="120" fromJunction="J7" toJunction="J6" end="180" vehsPerHour="56.60538089872627" departLane="free"/>
  <flow id="JF33059" begin="120" fromJunction="J6" toJunction="J5" end="180" vehsPerHour="66.55462724505828" departLane="free"/>
  <flow id="JF33060" begin="120" fromJunction="J6" toJunction="J4" end="180" vehsPerHour="3.8726287363653964" departLane="free"/>
  <flow id="JF33061" begin="120" fromJunction="J6" toJunction="J7" end="180" vehsPerHour="39.319188296102894" departLane="free"/>
  <flow id="JF33062" begin="120" fromJunction="J5" toJunction="J0" end="180" vehsPerHour="33.40669221317829" departLane="free"/>
  <flow id="JF33063" begin="120" fromJunction="J5" toJunction="J3" end="180" vehsPerHour="58.75854253685013" departLane="free"/>
  <flow id="JF33064" begin="120" fromJunction="J4" toJunction="J0" end="180" vehsPerHour="18.722441387478824" departLane="free"/>
  <flow id="JF33065" begin="120" fromJunction="J4" toJunction="J3" end="180" vehsPerHour="31.957880467624896" departLane="free"/>
  <flow id="JF33066" begin="120" fromJunction="J7" toJunction="J0" end="180" vehsPerHour="45.521502992684866" departLane="free"/>
  <flow id="JF33067" begin="120" fromJunction="J7" toJunction="J3" end="180" vehsPerHour="23.3604324731354" departLane="free"/>
  <flow id="JF33068" begin="120" fromJunction="J6" toJunction="J0" end="180" vehsPerHour="50.72882916447055" departLane="free"/>
  <flow id="JF33069" begin="120" fromJunction="J6" toJunction="J3" end="180" vehsPerHour="56.094603597653936" departLane="free"/>
  <flow id="JF33070" begin="180" fromJunction="J0" toJunction="J3" end="240" vehsPerHour="87.85591401560386" departLane="free"/>
  <flow id="JF33071" begin="180" fromJunction="J3" toJunction="J0" end="240" vehsPerHour="37.17929007987723" departLane="free"/>
  <flow id="JF33072" begin="180" fromJunction="J0" toJunction="J5" end="240" vehsPerHour="123.93767894873668" departLane="free"/>
  <flow id="JF33073" begin="180" fromJunction="J0" toJunction="J4" end="240" vehsPerHour="55.33077767992288" departLane="free"/>
  <flow id="JF33074" begin="180" fromJunction="J0" toJunction="J7" end="240" vehsPerHour="111.75473683130532" departLane="free"/>
  <flow id="JF33075" begin="180" fromJunction="J0" toJunction="J6" end="240" vehsPerHour="35.7538249469373" departLane="free"/>
  <flow id="JF33076" begin="180" fromJunction="J3" toJunction="J5" end="240" vehsPerHour="122.9665053551919" departLane="free"/>
  <flow id="JF33077" begin="180" fromJunction="J3" toJunction="J4" end="240" vehsPerHour="116.73061320308875" departLane="free"/>
  <flow id="JF33078" begin="180" fromJunction="J3" toJunction="J7" end="240" vehsPerHour="54.40442091482987" departLane="free"/>
  <flow id="JF33079" begin="180" fromJunction="J3" toJunction="J6" end="240" vehsPerHour="14.190680716058187" departLane="free"/>
  <flow id="JF33080" begin="180" fromJunction="J5" toJunction="J4" end="240" vehsPerHour="45.73637415560702" departLane="free"/>
  <flow id="JF33081" begin="180" fromJunction="J5" toJunction="J7" end="240" vehsPerHour="37.58289225231219" departLane="free"/>
  <flow id="JF33082" begin="180" fromJunction="J5" toJunction="J6" end="240" vehsPerHour="40.38119459078591" departLane="free"/>
  <flow id="JF33083" begin="180" fromJunction="J4" toJunction="J5" end="240" vehsPerHour="52.37007029223859" departLane="free"/>
  <flow id="JF33084" begin="180" fromJunction="J4" toJunction="J7" end="240" vehsPerHour="38.3316949473805" departLane="free"/>
  <flow id="JF33085" begin="180" fromJunction="J4" toJunction="J6" end="240" vehsPerHour="35.259216221212306" departLane="free"/>
  <flow id="JF33086" begin="180" fromJunction="J7" toJunction="J5" end="240" vehsPerHour="34.84799810064333" departLane="free"/>
  <flow id="JF33087" begin="180" fromJunction="J7" toJunction="J4" end="240" vehsPerHour="13.943921537369473" departLane="free"/>
  <flow id="JF33088" begin="180" fromJunction="J7" toJunction="J6" end="240" vehsPerHour="6.22539683375393" departLane="free"/>
  <flow id="JF33089" begin="180" fromJunction="J6" toJunction="J5" end="240" vehsPerHour="4.6024665475480235" departLane="free"/>
  <flow id="JF33090" begin="180" fromJunction="J6" toJunction="J4" end="240" vehsPerHour="39.986993099128696" departLane="free"/>
  <flow id="JF33091" begin="180" fromJunction="J6" toJunction="J7" end="240" vehsPerHour="38.6641078487157" departLane="free"/>
  <flow id="JF33092" begin="180" fromJunction="J5" toJunction="J0" end="240" vehsPerHour="25.520595993774812" departLane="free"/>
  <flow id="JF33093" begin="180" fromJunction="J5" toJunction="J3" end="240" vehsPerHour="46.20818070632694" departLane="free"/>
  <flow id="JF33094" begin="180" fromJunction="J4" toJunction="J0" end="240" vehsPerHour="23.838792628626432" departLane="free"/>
  <flow id="JF33095" begin="180" fromJunction="J4" toJunction="J3" end="240" vehsPerHour="1.2847607763560216" departLane="free"/>
  <flow id="JF33096" begin="180" fromJunction="J7" toJunction="J0" end="240" vehsPerHour="2.642792852110668" departLane="free"/>
  <flow id="JF33097" begin="180" fromJunction="J7" toJunction="J3" end="240" vehsPerHour="63.74647513537223" departLane="free"/>
  <flow id="JF33098" begin="180" fromJunction="J6" toJunction="J0" end="240" vehsPerHour="26.887385985939183" departLane="free"/>
  <flow id="JF33099" begin="180" fromJunction="J6" toJunction="J3" end="240" vehsPerHour="11.464071687986952" departLane="free"/>
  <flow id="JF33100" begin="240" fromJunction="J0" toJunction="J3" end="300" vehsPerHour="10.598558638499926" departLane="free"/>
  <flow id="JF33101" begin="240" fromJunction="J3" toJunction="J0" end="300" vehsPerHour="25.793602694116203" departLane="free"/>
  <flow id="JF33102" begin="240" fromJunction="J0" toJunction="J5" end="300" vehsPerHour="17.957634376315667" departLane="free"/>
  <flow id="JF33103" begin="240" fromJunction="J0" toJunction="J4" end="300" vehsPerHour="84.65595671689879" departLane="free"/>
  <flow id="JF33104" begin="240" fromJunction="J0" toJunction="J7" end="300" vehsPerHour="62.62486837265594" departLane="free"/>
  <flow id="JF33105" begin="240" fromJunction="J0" toJunction="J6" end="300" vehsPerHour="9.90088565016115" departLane="free"/>
  <flow id="JF33106" begin="240" fromJunction="J3" toJunction="J5" end="300" vehsPerHour="21.549850571042654" departLane="free"/>
  <flow id="JF33107" begin="240" fromJunction="J3" toJunction="J4" end="300" vehsPerHour="94.97499847346319" departLane="free"/>
  <flow id="JF33108" begin="240" fromJunction="J3" toJunction="J7" end="300" vehsPerHour="115.4519219832573" departLane="free"/>
  <flow id="JF33109" begin="240" fromJunction="J3" toJunction="J6" end="300" vehsPerHour="87.56808977360974" departLane="free"/>
  <flow id="JF33110" begin="240" fromJunction="J5" toJunction="J4" end="300" vehsPerHour="27.94154522067325" departLane="free"/>
  <flow id="JF33111" begin="240" fromJunction="J5" toJunction="J7" end="300" vehsPerHour="42.0144772218406" departLane="free"/>
  <flow id="JF33112" begin="240" fromJunction="J5" toJunction="J6" end="300" vehsPerHour="49.50860503260025" departLane="free"/>
  <flow id="JF33113" begin="240" fromJunction="J4" toJunction="J5" end="300" vehsPerHour="17.04194649643187" departLane="free"/>
  <flow id="JF33114" begin="240" fromJunction="J4" toJunction="J7" end="300" vehsPerHour="27.28407436053115" departLane="free"/>
  <flow id="JF33115" begin="240" fromJunction="J4" toJunction="J6" end="300" vehsPerHour="26.36756411634483" departLane="free"/>
  <flow id="JF33116" begin="240" fromJunction="J7" toJunction="J5" end="300" vehsPerHour="41.14229615672719" departLane="free"/>
  <flow id="JF33117" begin="240" fromJunction="J7" toJunction="J4" end="300" vehsPerHour="42.53276572594615" departLane="free"/>
  <flow id="JF33118" begin="240" fromJunction="J7" toJunction="J6" end="300" vehsPerHour="7.6474807277990156" departLane="free"/>
  <flow id="JF33119" begin="240" fromJunction="J6" toJunction="J5" end="300" vehsPerHour="55.42665076018169" departLane="free"/>
  <flow id="JF33120" begin="240" fromJunction="J6" toJunction="J4" end="300" vehsPerHour="35.44054344473112" departLane="free"/>
  <flow id="JF33121" begin="240" fromJunction="J6" toJunction="J7" end="300" vehsPerHour="48.83124854817427" departLane="free"/>
  <flow id="JF33122" begin="240" fromJunction="J5" toJunction="J0" end="300" vehsPerHour="55.81505586474333" departLane="free"/>
  <flow id="JF33123" begin="240" fromJunction="J5" toJunction="J3" end="300" vehsPerHour="53.494428688693134" departLane="free"/>
  <flow id="JF33124" begin="240" fromJunction="J4" toJunction="J0" end="300" vehsPerHour="2.140007428077195" departLane="free"/>
  <flow id="JF33125" begin="240" fromJunction="J4" toJunction="J3" end="300" vehsPerHour="38.8357294469128" departLane="free"/>
  <flow id="JF33126" begin="240" fromJunction="J7" toJunction="J0" end="300" vehsPerHour="65.23799764674114" departLane="free"/>
  <flow id="JF33127" begin="240" fromJunction="J7" toJunction="J3" end="300" vehsPerHour="40.087564106770564" departLane="free"/>
  <flow id="JF33128" begin="240" fromJunction="J6" toJunction="J0" end="300" vehsPerHour="35.38303853996498" departLane="free"/>
  <flow id="JF33129" begin="240" fromJunction="J6" toJunction="J3" end="300" vehsPerHour="40.304610071871636" departLane="free"/>
  <flow id="JF33130" begin="300" fromJunction="J0" toJunction="J3" end="360" vehsPerHour="46.51963813780245" departLane="free"/>
  <flow id="JF33131" begin="300" fromJunction="J3" toJunction="J0" end="360" vehsPerHour="63.671354013081164" departLane="free"/>
  <flow id="JF33132" begin="300" fromJunction="J0" toJunction="J5" end="360" vehsPerHour="64.12474435197025" departLane="free"/>
  <flow id="JF33133" begin="300" fromJunction="J0" toJunction="J4" end="360" vehsPerHour="101.97299854736112" departLane="free"/>
  <flow id="JF33134" begin="300" fromJunction="J0" toJunction="J7" end="360" vehsPerHour="103.11137206310414" departLane="free"/>
  <flow id="JF33135" begin="300" fromJunction="J0" toJunction="J6" end="360" vehsPerHour="100.4537032407127" departLane="free"/>
  <flow id="JF33136" begin="300" fromJunction="J3" toJunction="J5" end="360" vehsPerHour="39.96629149361567" departLane="free"/>
  <flow id="JF33137" begin="300" fromJunction="J3" toJunction="J4" end="360" vehsPerHour="99.7149443307699" departLane="free"/>
  <flow id="JF33138" begin="300" fromJunction="J3" toJunction="J7" end="360" vehsPerHour="40.13853455405402" departLane="free"/>
  <flow id="JF33139" begin="300" fromJunction="J3" toJunction="J6" end="360" vehsPerHour="6.715501400137927" departLane="free"/>
  <flow id="JF33140" begin="300" fromJunction="J5" toJunction="J4" end="360" vehsPerHour="2.4570142562708743" departLane="free"/>
  <flow id="JF33141" begin="300" fromJunction="J5" toJunction="J7" end="360" vehsPerHour="57.011584881874676" departLane="free"/>
  <flow id="JF33142" begin="300" fromJunction="J5" toJunction="J6" end="360" vehsPerHour="67.85236735044256" departLane="free"/>
  <flow id="JF33143" begin="300" fromJunction="J4" toJunction="J5" end="360" vehsPerHour="62.84947259563352" departLane="free"/>
  <flow id="JF33144" begin="300" fromJunction="J4" toJunction="J7" end="360" vehsPerHour="14.76557080180077" departLane="free"/>
  <flow id="JF33145" begin="300" fromJunction="J4" toJunction="J6" end="360" vehsPerHour="56.66198945671126" departLane="free"/>
  <flow id="JF33146" begin="300" fromJunction="J7" toJunction="J5" end="360" vehsPerHour="26.09207328150298" departLane="free"/>
  <flow id="JF33147" begin="300" fromJunction="J7" toJunction="J4" end="360" vehsPerHour="18.378387989935735" departLane="free"/>
  <flow id="JF33148" begin="300" fromJunction="J7" toJunction="J6" end="360" vehsPerHour="4.459203248655773" departLane="free"/>
  <flow id="JF33149" begin="300" fromJunction="J6" toJunction="J5" end="360" vehsPerHour="33.09369805939912" departLane="free"/>
  <flow id="JF33150" begin="300" fromJunction="J6" toJunction="J4" end="360" vehsPerHour="35.26736031994614" departLane="free"/>
  <flow id="JF33151" begin="300" fromJunction="J6" toJunction="J7" end="360" vehsPerHour="48.7775873003782" departLane="free"/>
  <flow id="JF33152" begin="300" fromJunction="J5" toJunction="J0" end="360" vehsPerHour="44.44246634498789" departLane="free"/>
  <flow id="JF33153" begin="300" fromJunction="J5" toJunction="J3" end="360" vehsPerHour="21.842268049844368" departLane="free"/>
  <flow id="JF33154" begin="300" fromJunction="J4" toJunction="J0" end="360" vehsPerHour="24.92119654523343" departLane="free"/>
  <flow id="JF33155" begin="300" fromJunction="J4" toJunction="J3" end="360" vehsPerHour="68.47216985596727" departLane="free"/>
  <flow id="JF33156" begin="300" fromJunction="J7" toJunction="J0" end="360" vehsPerHour="62.58779647946783" departLane="free"/>
  <flow id="JF33157" begin="300" fromJunction="J7" toJunction="J3" end="360" vehsPerHour="54.762866071545965" departLane="free"/>
  <flow id="JF33158" begin="300" fromJunction="J6" toJunction="J0" end="360" vehsPerHour="48.93312405426586" departLane="free"/>
  <flow id="JF33159" begin="300" fromJunction="J6" toJunction="J3" end="360" vehsPerHour="47.10017984813551" departLane="free"/>
  <flow id="JF33160" begin="360" fromJunction="J0" toJunction="J3" end="420" vehsPerHour="1.9023434519931017" departLane="free"/>
  <flow id="JF33161" begin="360" fromJunction="J3" toJunction="J0" end="420" vehsPerHour="57.49331255203366" departLane="free"/>
  <flow id="JF33162" begin="360" fromJunction="J0" toJunction="J5" end="420" vehsPerHour="125.82930195770008" departLane="free"/>
  <flow id="JF33163" begin="360" fromJunction="J0" toJunction="J4" end="420" vehsPerHour="67.29353595576141" departLane="free"/>
  <flow id="JF33164" begin="360" fromJunction="J0" toJunction="J7" end="420" vehsPerHour="61.463983057853476" departLane="free"/>
  <flow id="JF33165" begin="360" fromJunction="J0" toJunction="J6" end="420" vehsPerHour="0.4954020994048485" departLane="free"/>
  <flow id="JF33166" begin="360" fromJunction="J3" toJunction="J5" end="420" vehsPerHour="27.38676629705635" departLane="free"/>
  <flow id="JF33167" begin="360" fromJunction="J3" toJunction="J4" end="420" vehsPerHour="38.04385247720035" departLane="free"/>
  <flow id="JF33168" begin="360" fromJunction="J3" toJunction="J7" end="420" vehsPerHour="69.88390502468586" departLane="free"/>
  <flow id="JF33169" begin="360" fromJunction="J3" toJunction="J6" end="420" vehsPerHour="128.607754592194" departLane="free"/>
  <flow id="JF33170" begin="360" fromJunction="J5" toJunction="J4" end="420" vehsPerHour="58.20868981361592" departLane="free"/>
  <flow id="JF33171" begin="360" fromJunction="J5" toJunction="J7" end="420" vehsPerHour="56.18532577735701" departLane="free"/>
  <flow id="JF33172" begin="360" fromJunction="J5" toJunction="J6" end="420" vehsPerHour="26.40243488149943" departLane="free"/>
  <flow id="JF33173" begin="360" fromJunction="J4" toJunction="J5" end="420" vehsPerHour="39.16898861755181" departLane="free"/>
  <flow id="JF33174" begin="360" fromJunction="J4" toJunction="J7" end="420" vehsPerHour="58.365649863721195" departLane="free"/>
  <flow id="JF33175" begin="360" fromJunction="J4" toJunction="J6" end="420" vehsPerHour="46.41874872152432" departLane="free"/>
  <flow id="JF33176" begin="360" fromJunction="J7" toJunction="J5" end="420" vehsPerHour="35.90210071556674" departLane="free"/>
  <flow id="JF33177" begin="360" fromJunction="J7" toJunction="J4" end="420" vehsPerHour="35.216972671202974" departLane="free"/>
  <flow id="JF33178" begin="360" fromJunction="J7" toJunction="J6" end="420" vehsPerHour="32.39510066876103" departLane="free"/>
  <flow id="JF33179" begin="360" fromJunction="J6" toJunction="J5" end="420" vehsPerHour="34.54252445881595" departLane="free"/>
  <flow id="JF33180" begin="360" fromJunction="J6" toJunction="J4" end="420" vehsPerHour="64.95130331058623" departLane="free"/>
  <flow id="JF33181" begin="360" fromJunction="J6" toJunction="J7" end="420" vehsPerHour="64.55942800969402" departLane="free"/>
  <flow id="JF33182" begin="360" fromJunction="J5" toJunction="J0" end="420" vehsPerHour="6.474788136812143" departLane="free"/>
  <flow id="JF33183" begin="360" fromJunction="J5" toJunction="J3" end="420" vehsPerHour="36.438837118714" departLane="free"/>
  <flow id="JF33184" begin="360" fromJunction="J4" toJunction="J0" end="420" vehsPerHour="29.075197765649957" departLane="free"/>
  <flow id="JF33185" begin="360" fromJunction="J4" toJunction="J3" end="420" vehsPerHour="4.336193726769579" departLane="free"/>
  <flow id="JF33186" begin="360" fromJunction="J7" toJunction="J0" end="420" vehsPerHour="35.596180037527084" departLane="free"/>
  <flow id="JF33187" begin="360" fromJunction="J7" toJunction="J3" end="420" vehsPerHour="51.852671662949305" departLane="free"/>
  <flow id="JF33188" begin="360" fromJunction="J6" toJunction="J0" end="420" vehsPerHour="45.73064286036672" departLane="free"/>
  <flow id="JF33189" begin="360" fromJunction="J6" toJunction="J3" end="420" vehsPerHour="47.529086431146155" departLane="free"/>
  <flow id="JF33190" begin="420" fromJunction="J0" toJunction="J3" end="480" vehsPerHour="54.80742513728152" departLane="free"/>
  <flow id="JF33191" begin="420" fromJunction="J3" toJunction="J0" end="480" vehsPerHour="46.291528387408846" departLane="free"/>
  <flow id="JF33192" begin="420" fromJunction="J0" toJunction="J5" end="480" vehsPerHour="40.35403783526393" departLane="free"/>
  <flow id="JF33193" begin="420" fromJunction="J0" toJunction="J4" end="480" vehsPerHour="132.00564670541237" departLane="free"/>
  <flow id="JF33194" begin="420" fromJunction="J0" toJunction="J7" end="480" vehsPerHour="53.15630249468499" departLane="free"/>
  <flow id="JF33195" begin="420" fromJunction="J0" toJunction="J6" end="480" vehsPerHour="101.51157988695724" departLane="free"/>
  <flow id="JF33196" begin="420" fromJunction="J3" toJunction="J5" end="480" vehsPerHour="58.40887332217039" departLane="free"/>
  <flow id="JF33197" begin="420" fromJunction="J3" toJunction="J4" end="480" vehsPerHour="48.165068414869296" departLane="free"/>
  <flow id="JF33198" begin="420" fromJunction="J3" toJunction="J7" end="480" vehsPerHour="63.15152964551504" departLane="free"/>
  <flow id="JF33199" begin="420" fromJunction="J3" toJunction="J6" end="480" vehsPerHour="94.88375925637237" departLane="free"/>
  <flow id="JF33200" begin="420" fromJunction="J5" toJunction="J4" end="480" vehsPerHour="11.94155323139672" departLane="free"/>
  <flow id="JF33201" begin="420" fromJunction="J5" toJunction="J7" end="480" vehsPerHour="16.08354201656338" departLane="free"/>
  <flow id="JF33202" begin="420" fromJunction="J5" toJunction="J6" end="480" vehsPerHour="59.46053230580271" departLane="free"/>
  <flow id="JF33203" begin="420" fromJunction="J4" toJunction="J5" end="480" vehsPerHour="17.00929902228421" departLane="free"/>
  <flow id="JF33204" begin="420" fromJunction="J4" toJunction="J7" end="480" vehsPerHour="39.026639267128175" departLane="free"/>
  <flow id="JF33205" begin="420" fromJunction="J4" toJunction="J6" end="480" vehsPerHour="14.267442126373624" departLane="free"/>
  <flow id="JF33206" begin="420" fromJunction="J7" toJunction="J5" end="480" vehsPerHour="16.2876847942516" departLane="free"/>
  <flow id="JF33207" begin="420" fromJunction="J7" toJunction="J4" end="480" vehsPerHour="58.472415905970536" departLane="free"/>
  <flow id="JF33208" begin="420" fromJunction="J7" toJunction="J6" end="480" vehsPerHour="30.74586225333406" departLane="free"/>
  <flow id="JF33209" begin="420" fromJunction="J6" toJunction="J5" end="480" vehsPerHour="42.84165044719809" departLane="free"/>
  <flow id="JF33210" begin="420" fromJunction="J6" toJunction="J4" end="480" vehsPerHour="29.120374726737417" departLane="free"/>