<?xml version="1.0" encoding="UTF-8"?>
<routes xmlns:xsi="http://www.w3.org/2001/XMLSchema-instance" xsi:noNamespaceSchemaLocation="http://sumo.dlr.de/xsd/routes_file.xsd">
  <flow id="JF30940" begin="0" fromJunction="J0" toJunction="J3" end="60" vehsPerHour="91.32410962821338" departLane="free"/>
  <flow id="JF30941" begin="0" fromJunction="J3" toJunction="J0" end="60" vehsPerHour="59.85593348937719" departLane="free"/>
  <flow id="JF30942" begin="0" fromJunction="J0" toJunction="J5" end="60" vehsPerHour="52.304430086223825" departLane="free"/>
  <flow id="JF30943" begin="0" fromJunction="J0" toJunction="J4" end="60" vehsPerHour="72.54964065178582" departLane="free"/>
  <flow id="JF30944" begin="0" fromJunction="J0" toJunction="J7" end="60" vehsPerHour="42.472839530071326" departLane="free"/>
  <flow id="JF30945" begin="0" fromJunction="J0" toJunction="J6" end="60" vehsPerHour="112.88417807414743" departLane="free"/>
  <flow id="JF30946" begin="0" fromJunction="J3" toJunction="J5" end="60" vehsPerHour="64.24102082965345" departLane="free"/>
  <flow id="JF30947" begin="0" fromJunction="J3" toJunction="J4" end="60" vehsPerHour="134.42859407464843" departLane="free"/>
  <flow id="JF30948" begin="0" fromJunction="J3" toJunction="J7" end="60" vehsPerHour="104.48093197948144" departLane="free"/>
  <flow id="JF30949" begin="0" fromJunction="J3" toJunction="J6" end="60" vehsPerHour="136.4731479826574" departLane="free"/>
  <flow id="JF30950" begin="0" fromJunction="J5" toJunction="J4" end="60" vehsPerHour="65.77725292592106" departLane="free"/>
  <flow id="JF30951" begin="0" fromJunction="J5" toJunction="J7" end="60" vehsPerHour="21.406520236683534" departLane="free"/>
  <flow id="JF30952" begin="0" fromJunction="J5" toJunction="J6" end="60" vehsPerHour="10.49885875258349" departLane="free"/>
  <flow id="JF30953" begin="0" fromJunction="J4" toJunction="J5" end="60" vehsPerHour="62.64091509920077" departLane="free"/>
  <flow id="JF30954" begin="0" fromJunction="J4" toJunction="J7" end="60" vehsPerHour="42.70629867048552" departLane="free"/>
  <flow id="JF30955" begin="0" fromJunction="J4" toJunction="J6" end="60" vehsPerHour="26.36623166156599" departLane="free"/>
  <flow id="JF30956" begin="0" fromJunction="J7" toJunction="J5" end="60" vehsPerHour="5.342814514920486" departLane="free"/>
  <flow id="JF30957" begin="0" fromJunction="J7" toJunction="J4" end="60" vehsPerHour="7.726934897865718" departLane="free"/>
  <flow id="JF30958" begin="0" fromJunction="J7" toJunction="J6" end="60" vehsPerHour="16.834183323065417" departLane="free"/>
  <flow id="JF30959" begin="0" fromJunction="J6" toJunction="J5" end="60" vehsPerHour="57.527749358720726" departLane="free"/>
  <flow id="JF30960" begin="0" fromJunction="J6" toJunction="J4" end="60" vehsPerHour="35.599667972806195" departLane="free"/>
  <flow id="JF30961" begin="0" fromJunction="J6" toJunction="J7" end="60" vehsPerHour="57.648719685637886" departLane="free"/>
  <flow id="JF30962" begin="0" fromJunction="J5" toJunction="J0" end="60" vehsPerHour="68.0564185761208" departLane="free"/>
  <flow id="JF30963" begin="0" fromJunction="J5" toJunction="J3" end="60" vehsPerHour="9.167252248920654" departLane="free"/>
  <flow id="JF30964" begin="0" fromJunction="J4" toJunction="J0" end="60" vehsPerHour="60.96051529343103" departLane="free"/>
  <flow id="JF30965" begin="0" fromJunction="J4" toJunction="J3" end="60" vehsPerHour="16.944769090717003" departLane="free"/>
  <flow id="JF30966" begin="0" fromJunction="J7" toJunction="J0" end="60" vehsPerHour="21.87204336327416" departLane="free"/>
  <flow id="JF30967" begin="0" fromJunction="J7" toJunction="J3" end="60" vehsPerHour="16.885993444800725" departLane="free"/>
  <flow id="JF30968" begin="0" fromJunction="J6" toJunction="J0" end="60" vehsPerHour="22.190069297095764" departLane="free"/>
  <flow id="JF30969" begin="0" fromJunction="J6" toJunction="J3" end="60" vehsPerHour="57.01423942945173" departLane="free"/>
  <flow id="JF30970" begin="60" fromJunction="J0" toJunction="J3" end="120" vehsPerHour="68.83485649062392" departLane="free"/>
  <flow id="JF30971" begin="60" fromJunction="J3" toJunction="J0" end="120" vehsPerHour="6.218918035837044" departLane="free"/>
  <flow id="JF30972" begin="60" fromJunction="J0" toJunction="J5" end="120" vehsPerHour="107.65525701259578" departLane="free"/>
  <flow id="JF30973" begin="60" fromJunction="J0" toJunction="J4" end="120" vehsPerHour="18.974762766935385" departLane="free"/>
  <flow id="JF30974" begin="60" fromJunction="J0" toJunction="J7" end="120" vehsPerHour="76.9193232324058" departLane="free"/>
  <flow id="JF30975" begin="60" fromJunction="J0" toJunction="J6" end="120" vehsPerHour="58.14411130091505" departLane="free"/>
  <flow id="JF30976" begin="60" fromJunction="J3" toJunction="J5" end="120" vehsPerHour="60.03783972856208" departLane="free"/>
  <flow id="JF30977" begin="60" fromJunction="J3" toJunction="J4" end="120" vehsPerHour="48.362089587910226" departLane="free"/>
  <flow id="JF30978" begin="60" fromJunction="J3" toJunction="J7" end="120" vehsPerHour="115.82534476548378" departLane="free"/>
  <flow id="JF30979" begin="60" fromJunction="J3" toJunction="J6" end="120" vehsPerHour="1.0921100468123581" departLane="free"/>
  <flow id="JF30980" begin="120" fromJunction="J0" toJunction="J3" end="180" vehsPerHour="33.15994759106417" departLane="free"/>
  <flow id="JF30981" begin="120" fromJunction="J3" toJunction="J0" end="180" vehsPerHour="79.63517658868687" departLane="free"/>
  <flow id="JF30982" begin="120" fromJunction="J0" toJunction="J5" end="180" vehsPerHour="81.3924431706964" departLane="free"/>
  <flow id="JF30983" begin="120" fromJunction="J0" toJunction="J4" end="180" vehsPerHour="67.0111098802811" departLane="free"/>
  <flow id="JF30984" begin="120" fromJunction="J0" toJunction="J7" end="180" vehsPerHour="30.875392425512413" departLane="free"/>
  <flow id="JF30985" begin="120" fromJunction="J0" toJunction="J6" end="180" vehsPerHour="118.62080223580834" departLane="free"/>
  <flow id="JF30986" begin="120" fromJunction="J3" toJunction="J5" end="180" vehsPerHour="21.39553883373487" departLane="free"/>
  <flow id="JF30987" begin="120" fromJunction="J3" toJunction="J4" end="180" vehsPerHour="98.63758492066219" departLane="free"/>
  <flow id="JF30988" begin="120" fromJunction="J3" toJunction="J7" end="180" vehsPerHour="92.92758375004288" departLane="free"/>
  <flow id="JF30989" begin="120" fromJunction="J3" toJunction="J6" end="180" vehsPerHour="51.83936486511389" departLane="free"/>
  <flow id="JF30990" begin="180" fromJunction="J0" toJunction="J3" end="240" vehsPerHour="127.44926018086862" departLane="free"/>
  <flow id="JF30991" begin="180" fromJunction="J3" toJunction="J0" end="240" vehsPerHour="66.73692742308852" departLane="free"/>
  <flow id="JF30992" begin="180" fromJunction="J0" toJunction="J5" end="240" vehsPerHour="14.53750527909952" departLane="free"/>
  <flow id="JF30993" begin="180" fromJunction="J0" toJunction="J4" end="240" vehsPerHour="2.8131901443025016" departLane="free"/>
  <flow id="JF30994" begin="180" fromJunction="J0" toJunction="J7" end="240" vehsPerHour="77.01872116694791" departLane="free"/>
  <flow id="JF30995" begin="180" fromJunction="J0" toJunction="J6" end="240" vehsPerHour="63.18899249196557" departLane="free"/>
  <flow id="JF30996" begin="180" fromJunction="J3" toJunction="J5" end="240" vehsPerHour="86.9642585960298" departLane="free"/>
  <flow id="JF30997" begin="180" fromJunction="J3" toJunction="J4" end="240" vehsPerHour="30.359026017148388" departLane="free"/>
  <flow id="JF30998" begin="180" fromJunction="J3" toJunction="J7" end="240" vehsPerHour="12.562427803860453" departLane="free"/>
  <flow id="JF30999" begin="180" fromJunction="J3" toJunction="J6" end="240" vehsPerHour="30.938105257786678" departLane="free"/>
  <flow id="JF31000" begin="180" fromJunction="J5" toJunction="J4" end="240" vehsPerHour="14.07761692887532" departLane="free"/>
  <flow id="JF31001" begin="180" fromJunction="J5" toJunction="J7" end="240" vehsPerHour="25.95401676446972" departLane="free"/>
  <flow id="JF31002" begin="180" fromJunction="J5" toJunction="J6" end="240" vehsPerHour="50.0290875365056" departLane="free"/>
  <flow id="JF31003" begin="180" fromJunction="J4" toJunction="J5" end="240" vehsPerHour="43.30000902773393" departLane="free"/>
  <flow id="JF31004" begin="180" fromJunction="J4" toJunction="J7" end="240" vehsPerHour="63.658906466441294" departLane="free"/>
  <flow id="JF31005" begin="180" fromJunction="J4" toJunction="J6" end="240" vehsPerHour="5.708575328333074" departLane="free"/>
  <flow id="JF31006" begin="180" fromJunction="J7" toJunction="J5" end="240" vehsPerHour="24.287985816156986" departLane="free"/>
  <flow id="JF31007" begin="180" fromJunction="J7" toJunction="J4" end="240" vehsPerHour="4.1095719307447265" departLane="free"/>
  <flow id="JF31008" begin="180" fromJunction="J7" toJunction="J6" end="240" vehsPerHour="13.77467389124598" departLane="free"/>
  <flow id="JF31009" begin="180" fromJunction="J6" toJunction="J5" end="240" vehsPerHour="26.63245253300668" departLane="free"/>
  <flow id="JF31010" begin="180" fromJunction="J6" toJunction="J4" end="240" vehsPerHour="33.12958835772224" departLane="free"/>
  <flow id="JF31011" begin="180" fromJunction="J6" toJunction="J7" end="240" vehsPerHour="43.57708275567022" departLane="free"/>
  <flow id="JF31012" begin="180" fromJunction="J5" toJunction="J0" end="240" vehsPerHour="27.633581303256737" departLane="free"/>
  <flow id="JF31013" begin="180" fromJunction="J5" toJunction="J3" end="240" vehsPerHour="32.54995542605936" departLane="free"/>
  <flow id="JF31014" begin="180" fromJunction="J4" toJunction="J0" end="240" vehsPerHour="67.03974995250071" departLane="free"/>
  <flow id="JF31015" begin="180" fromJunction="J4" toJunction="J3" end="240" vehsPerHour="24.293202266655523" departLane="free"/>
  <flow id="JF31016" begin="180" fromJunction="J7" toJunction="J0" end="240" vehsPerHour="12.972863272850752" departLane="free"/>
  <flow id="JF31017" begin="180" fromJunction="J7" toJunction="J3" end="240" vehsPerHour="17.052647823088588" departLane="free"/>
  <flow id="JF31018" begin="180" fromJunction="J6" toJunction="J0" end="240" vehsPerHour="39.27508246630284" departLane="free"/>
  <flow id="JF31019" begin="180" fromJunction="J6" toJunction="J3" end="240" vehsPerHour="28.958477144426354" departLane="free"/>
  <flow id="JF31020" begin="240" fromJunction="J0" toJunction="J3" end="300" vehsPerHour="63.730601639208324" departLane="free"/>
  <flow id="JF31021" begin="240" fromJunction="J3" toJunction="J0" end="300" vehsPerHour="4.564061761009756" departLane="free"/>
  <flow id="JF31022" begin="240" fromJunction="J0" toJunction="J5" end="300" vehsPerHour="44.87704295943205" departLane="free"/>
  <flow id="JF31023" begin="240" fromJunction="J0" toJunction="J4" end="300" vehsPerHour="82.01245892329466" departLane="free"/>
  <flow id="JF31024" begin="240" fromJunction="J0" toJunction="J7" end="300" vehsPerHour="126.01312121659747" departLane="free"/>
  <flow id="JF31025" begin="240" fromJunction="J0" toJunction="J6" end="300" vehsPerHour="44.808635323200825" departLane="free"/>
  <flow id="JF31026" begin="240" fromJunction="J3" toJunction="J5" end="300" vehsPerHour="119.37228117276972" departLane="free"/>
  <flow id="JF31027" begin="240" fromJunction="J3" toJunction="J4" end="300" vehsPerHour="126.06847458788617" departLane="free"/>
  <flow id="JF31028" begin="240" fromJunction="J3" toJunction="J7" end="300" vehsPerHour="57.91024998381448" departLane="free"/>
  <flow id="JF31029" begin="240" fromJunction="J3" toJunction="J6" end="300" vehsPerHour="37.2994326630919" departLane="free"/>
  <flow id="JF31030" begin="240" fromJunction="J5" toJunction="J4" end="300" vehsPerHour="37.95897018647712" departLane="free"/>
  <flow id="JF31031" begin="240" fromJunction="J5" toJunction="J7" end="300" vehsPerHour="54.045009061134905" departLane="free"/>
  <flow id="JF31032" begin="240" fromJunction="J5" toJunction="J6" end="300" vehsPerHour="64.66823835970332" departLane="free"/>
  <flow id="JF31033" begin="240" fromJunction="J4" toJunction="J5" end="300" vehsPerHour="30.226555295034064" departLane="free"/>
  <flow id="JF31034" begin="240" fromJunction="J4" toJunction="J7" end="300" vehsPerHour="7.387242301435063" departLane="free"/>
  <flow id="JF31035" begin="240" fromJunction="J4" toJunction="J6" end="300" vehsPerHour="36.43116254297822" departLane="free"/>
  <flow id="JF31036" begin="240" fromJunction="J7" toJunction="J5" end="300" vehsPerHour="43.311365635419556" departLane="free"/>
  <flow id="JF31037" begin="240" fromJunction="J7" toJunction="J4" end="300" vehsPerHour="60.43558430408279" departLane="free"/>
  <flow id="JF31038" begin="240" fromJunction="J7" toJunction="J6" end="300" vehsPerHour="45.29146379437202" departLane="free"/>
  <flow id="JF31039" begin="240" fromJunction="J6" toJunction="J5" end="300" vehsPerHour="37.130225706083785" departLane="free"/>
  <flow id="JF31040" begin="240" fromJunction="J6" toJunction="J4" end="300" vehsPerHour="10.74240789831987" departLane="free"/>
  <flow id="JF31041" begin="240" fromJunction="J6" toJunction="J7" end="300" vehsPerHour="14.243152546563744" departLane="free"/>
  <flow id="JF31042" begin="240" fromJunction="J5" toJunction="J0" end="300" vehsPerHour="20.236296804632186" departLane="free"/>
  <flow id="JF31043" begin="240" fromJunction="J5" toJunction="J3" end="300" vehsPerHour="41.14176584360664" departLane="free"/>
  <flow id="JF31044" begin="240" fromJunction="J4" toJunction="J0" end="300" vehsPerHour="39.78791260167531" departLane="free"/>
  <flow id="JF31045" begin="240" fromJunction="J4" toJunction="J3" end="300" vehsPerHour="9.124617257437055" departLane="free"/>
  <flow id="JF31046" begin="240" fromJunction="J7" toJunction="J0" end="300" vehsPerHour="21.936163670911192" departLane="free"/>
  <flow id="JF31047" begin="240" fromJunction="J7" toJunction="J3" end="300" vehsPerHour="61.08702911821209" departLane="free"/>
  <flow id="JF31048" begin="240" fromJunction="J6" toJunction="J0" end="300" vehsPerHour="68.41027664931826" departLane="free"/>
  <flow id="JF31049" begin="240" fromJunction="J6" toJunction="J3" end="300" vehsPerHour="44.4406927126909" departLane="free"/>
  <flow id="JF31050" begin="300" fromJunction="J0" toJunction="J3" end="360" vehsPerHour="71.98009660465884" departLane="free"/>
  <flow id="JF31051" begin="300" fromJunction="J3" toJunction="J0" end="360" vehsPerHour="56.93595222904435" departLane="free"/>
  <flow id="JF31052" begin="300" fromJunction="J0" toJunction="J5" end="360" vehsPerHour="61.60499843434036" departLane="free"/>
  <flow id="JF31053" begin="300" fromJunction="J0" toJunction="J4" end="360" vehsPerHour="35.33309710973155" departLane="free"/>
  <flow id="JF31054" begin="300" fromJunction="J0" toJunction="J7" end="360" vehsPerHour="12.884286649400462" departLane="free"/>
  <flow id="JF31055" begin="300" fromJunction="J0" toJunction="J6" end="360" vehsPerHour="25.87945669454304" departLane="free"/>
  <flow id="JF31056" begin="300" fromJunction="J3" toJunction="J5" end="360" vehsPerHour="117.70086886957806" departLane="free"/>
  <flow id="JF31057" begin="300" fromJunction="J3" toJunction="J4" end="360" vehsPerHour="136.15675877185623" departLane="free"/>
  <flow id="JF31058" begin="300" fromJunction="J3" toJunction="J7" end="360" vehsPerHour="5.142767148996585" departLane="free"/>
  <flow id="JF31059" begin="300" fromJunction="J3" toJunction="J6" end="360" vehsPerHour="79.9306920000543" departLane="free"/>
  <flow id="JF31060" begin="300" fromJunction="J5" toJunction="J4" end="360" vehsPerHour="47.842480717926684" departLane="free"/>
  <flow id="JF31061" begin="300" fromJunction="J5" toJunction="J7" end="360" vehsPerHour="26.05941503507739" departLane="free"/>
  <flow id="JF31062" begin="300" fromJunction="J5" toJunction="J6" end="360" vehsPerHour="62.31352614297367" departLane="free"/>
  <flow id="JF31063" begin="300" fromJunction="J4" toJunction="J5" end="360" vehsPerHour="7.603093602913881" departLane="free"/>
  <flow id="JF31064" begin="300" fromJunction="J4" toJunction="J7" end="360" vehsPerHour="25.23472375215994" departLane="free"/>
  <flow id="JF31065" begin="300" fromJunction="J4" toJunction="J6" end="360" vehsPerHour="20.02540976034971" departLane="free"/>
  <flow id="JF31066" begin="300" fromJunction="J7" toJunction="J5" end="360" vehsPerHour="8.032636808963055" departLane="free"/>
  <flow id="JF31067" begin="300" fromJunction="J7" toJunction="J4" end="360" vehsPerHour="61.53331590808597" departLane="free"/>
  <flow id="JF31068" begin="300" fromJunction="J7" toJunction="J6" end="360" vehsPerHour="33.685461438636864" departLane="free"/>
  <flow id="JF31069" begin="300" fromJunction="J6" toJunction="J5" end="360" vehsPerHour="23.364581715452754" departLane="free"/>
  <flow id="JF31070" begin="300" fromJunction="J6" toJunction="J4" end="360" vehsPerHour="13.699525870404438" departLane="free"/>
  <flow id="JF31071" begin="300" fromJunction="J6" toJunction="J7" end="360" vehsPerHour="22.433019284105974" departLane="free"/>
  <flow id="JF31072" begin="300" fromJunction="J5" toJunction="J0" end="360" vehsPerHour="3.225116206274674" departLane="free"/>
  <flow id="JF31073" begin="300" fromJunction="J5" toJunction="J3" end="360" vehsPerHour="38.76159379241408" departLane="free"/>
  <flow id="JF31074" begin="300" fromJunction="J4" toJunction="J0" end="360" vehsPerHour="18.953469259236833" departLane="free"/>
  <flow id="JF31075" begin="300" fromJunction="J4" toJunction="J3" end="360" vehsPerHour="65.90659892529385" departLane="free"/>
  <flow id="JF31076" begin="300" fromJunction="J7" toJunction="J0" end="360" vehsPerHour="13.862225028082742" departLane="free"/>
  <flow id="JF31077" begin="300" fromJunction="J7" toJunction="J3" end="360" vehsPerHour="2.1651626950823135" departLane="free"/>
  <flow id="JF31078" begin="300" fromJunction="J6" toJunction="J0" end="360" vehsPerHour="66.67291605018659" departLane="free"/>
  <flow id="JF31079" begin="300" fromJunction="J6" toJunction="J3" end="360" vehsPerHour="51.163507074395184" departLane="free"/>
  <flow id="JF31080" begin="360" fromJunction="J0" toJunction="J3" end="420" vehsPerHour="15.985318495281671" departLane="free"/>
  <flow id="JF31081" begin="360" fromJunction="J3" toJunction="J0" end="420" vehsPerHour="113.33434373012527" departLane="free"/>
  <flow id="JF31082" begin="360" fromJunction="J0" toJunction="J5" end="420" vehsPerHour="17.76638084829162" departLane="free"/>
  <flow id="JF31083" begin="360" fromJunction="J0" toJunction="J4" end="420" vehsPerHour="65.09458872857567" departLane="free"/>
  <flow id="JF31084" begin="360" fromJunction="J0" toJunction="J7" end="420" vehsPerHour="131.04290544708934" departLane="free"/>
  <flow id="JF31085" begin="360" fromJunction="J0" toJunction="J6" end="420" vehsPerHour="7.01754652750903" departLane="free"/>
  <flow id="JF31086" begin="360" fromJunction="J3" toJunction="J5" end="420" vehsPerHour="44.576515143300405" departLane="free"/>
  <flow id="JF31087" begin="360" fromJunction="J3" toJunction="J4" end="420" vehsPerHour="86.9659986272826" departLane="free"/>
  <flow id="JF31088" begin="360" fromJunction="J3" toJunction="J7" end="420" vehsPerHour="104.66425982619916" departLane="free"/>
  <flow id="JF31089" begin="360" fromJunction="J3" toJunction="J6" end="420" vehsPerHour="96.63630268778827" departLane="free"/>
  <flow id="JF31090" begin="360" fromJunction="J5" toJunction="J4" end="420" vehsPerHour="59.04434616015994" departLane="free"/>
  <flow id="JF31091" begin="360" fromJunction="J5" toJunction="J7" end="420" vehsPerHour="52.8983365329677" departLane="free"/>
  <flow id="JF31092" begin="360" fromJunction="J5" toJunction="J6" end="420" vehsPerHour="8.560993396929028" departLane="free"/>
  <flow id="JF31093" begin="360" fromJunction="J4" toJunction="J5" end="420" vehsPerHour="56.60075285004997" departLane="free"/>
  <flow id="JF31094" begin="360" fromJunction="J4" toJunction="J7" end="420" vehsPerHour="44.975022704845685" departLane="free"/>
  <flow id="JF31095" begin="360" fromJunction="J4" toJunction="J6" end="420" vehsPerHour="4.9724339028297715" departLane="free"/>
  <flow id="JF31096" begin="360" fromJunction="J7" toJunction="J5" end="420" vehsPerHour="17.712645582830685" departLane="free"/>
  <flow id="JF31097" begin="360" fromJunction="J7" toJunction="J4" end="420" vehsPerHour="3.56207081377358" departLane="free"/>
  <flow id="JF31098" begin="360" fromJunction="J7" toJunction="J6" end="420" vehsPerHour="47.041622281855894" departLane="free"/>
  <flow id="JF31099" begin="360" fromJunction="J6" toJunction="J5" end="420" vehsPerHour="31.88740593204092" departLane="free"/>
  <flow id="JF31100" begin="360" fromJunction="J6" toJunction="J4" end="420" vehsPerHour="55.09962655896409" departLane="free"/>
  <flow id="JF31101" begin="360" fromJunction="J6" toJunction="J7" end="420" vehsPerHour="14.948748084411971" departLane="free"/>
  <flow id="JF31102" begin="360" fromJunction="J5" toJunction="J0" end="420" vehsPerHour="26.954794116586395" departLane="free"/>
  <flow id="JF31103" begin="360" fromJunction="J5" toJunction="J3" end="420" vehsPerHour="33.649302586037415" departLane="free"/>
  <flow id="JF31104" begin="360" fromJunction="J4" toJunction="J0" end="420" vehsPerHour="43.84945555121434" departLane="free"/>
  <flow id="JF31105" begin="360" fromJunction="J4" toJunction="J3" end="420" vehsPerHour="21.784832472422327" departLane="free"/>
  <flow id="JF31106" begin="360" fromJunction="J7" toJunction="J0" end="420" vehsPerHour="8.593981412628624" departLane="free"/>
  <flow id="JF31107" begin="360" fromJunction="J7" toJunction="J3" end="420" vehsPerHour="59.3694797416012" departLane="free"/>
  <flow id="JF31108" begin="360" fromJunction="J6" toJunction="J0" end="420" vehsPerHour="68.49440600234405" departLane="free"/>
  <flow id="JF31109" begin="360" fromJunction="J6" toJunction="J3" end="420" vehsPerHour="57.88163469487732" departLane="free"/>
  <flow id="JF31110" begin="420" fromJunction="J0" toJunction="J3" end="480" vehsPerHour="31.780953919414724" departLane="free"/>
  <flow id="JF31111" begin="420" fromJunction="J3" toJunction="J0" end="480" vehsPerHour="83.83096028669928" departLane="free"/>
  <flow id="JF31112" begin="420" fromJunction="J0" toJunction="J5" end="480" vehsPerHour="127.4397841860203" departLane="free"/>
  <flow id="JF31113" begin="420" fromJunction="J0" toJunction="J4" end="480" vehsPerHour="124.68875249998514" departLane="free"/>
  <flow id="JF31114" begin="420" fromJunction="J0" toJunction="J7" end="480" vehsPerHour="33.1933358992382" departLane="free"/>
  <flow id="JF31115" begin="420" fromJunction="J0" toJunction="J6" end="480" vehsPerHour="25.088091867619006" departLane="free"/>
  <flow id="JF31116" begin="420" fromJunction="J3" toJunction="J5" end="480" vehsPerHour="56.61707275143091" departLane="free"/>
  <flow id="JF31117" begin="420" fromJunction="J3" toJunction="J4" end="480" vehsPerHour="119.30762328823269" departLane="free"/>
  <flow id="JF31118" begin="420" fromJunction="J3" toJunction="J7" end="480" vehsPerHour="1.0082807939912413" departLane="free"/>
  <flow id="JF31119" begin="420" fromJunction="J3" toJunction="J6" end="480" vehsPerHour="58.322094562994266" departLane="free"/>
  <flow id="JF31120" begin="420" fromJunction="J5" toJunction="J4" end="480" vehsPerHour="38.46463672228232" departLane="free"/>
  <flow id="JF31121" begin="420" fromJunction="J5" toJunction="J7" end="480" vehsPerHour="23.68877093396425" departLane="free"/>
  <flow id="JF31122" begin="420" fromJunction="J5" toJunction="J6" end="480" vehsPerHour="31.06855986841638" departLane="free"/>
  <flow id="JF31123" begin="420" fromJunction="J4" toJunction="J5" end="480" vehsPerHour="24.90121551247636" departLane="free"/>
  <flow id="JF31124" begin="420" fromJunction="J4" toJunction="J7" end="480" vehsPerHour="12.046177213216206" departLane="free"/>
  <flow id="JF31125" begin="420" fromJunction="J4" toJunction="J6" end="480" vehsPerHour="68.0144241542283" departLane="free"/>
  <flow id="JF31126" begin="420" fromJunction="J7" toJunction="J5" end="480" vehsPerHour="42.98327335030518" departLane="free"/>
  <flow id="JF31127" begin="420" fromJunction="J7" toJunction="J4" end="480" vehsPerHour="14.27347965121601" departLane="free"/>
  <flow id="JF31128" begin="420" fromJunction="J7" toJunction="J6" end="480" vehsPerHour="9.405864369669402" departLane="free"/>
  <flow id="JF31129" begin="420" fromJunction="J6" toJunction="J5" end="480" vehsPerHour="15.730385081877928" departLane="free"/>
  <flow id="JF31130" begin="420" fromJunction="J6" toJunction="J4" end="480" vehsPerHour="52.35047591493145" departLane="free"/>
  <flow id="JF31131" begin="420" fromJunction="J6" toJunction="J7" end="480" vehsPerHour="55.06714275909785" departLane="free"/>
  <flow id="JF31132" begin="420" fromJunction="J5" toJunction="J0" end="480" vehsPerHour="65.43096215691912" departLane="free"/>
  <flow id="JF31133" begin="420" fromJunction="J5" toJunction="J3" end="480" vehsPerHour="18.943110584773798" departLane="free"/>
  <flow id="JF31134" begin="420" fromJunction="J4" toJunction="J0" end="480" vehsPerHour="25.295271655720004" departLane="free"/>
  <flow id="JF31135" begin="420" fromJunction="J4" toJunction="J3" end="480" vehsPerHour="7.086039882218586" departLane="free"/>
  <flow id="JF31136" begin="420" fromJunction="J7" toJunction="J0" end="480" vehsPerHour="50.56556202106191" departLane="free"/>
  <flow id="JF31137" begin="420" fromJunction="J7" toJunction="J3" end="480" vehsPerHour="33.53271815768785" departLane="free"/>
  <flow id="JF31138" begin="420" fromJunction="J6" toJunction="J0" end="480" vehsPerHour="55.60151430310958" departLane="free"/>
  <flow id="JF31139" begin="420" fromJunction="J6" toJunction="J3" end="480" vehsPerHour="54.460346375735234" departLane="free"/>
  <flow id="JF31140" begin="480" fromJunction="J0" toJunction="J3" end="540" vehsPerHour="16.917122759795028" departLane="free"/>
  <flow id="JF31141" begin="480" fromJunction="J3" toJunction="J0" end="540" vehsPerHour="5.702418236981369" departLane="free"/>
  <flow id="JF31142" begin="480" fromJunction="J0" toJunction="J5" end="540" vehsPerHour="57.64894667831698" departLane="free"/>
  <flow id="JF31143" begin="480" fromJunction="J0" toJunction="J4" end="540" vehsPerHour="35.7168932652069" departLane="free"/>
  <flow id="JF31144" begin="480" fromJunction="J0" toJunction="J7" end="540" vehsPerHour="100.72982133325608" departLane="free"/>
  <flow id="JF31145" begin="480" fromJunction="J0" toJunction="J6" end="540" vehsPerHour="12.858681769903678" departLane="free"/>
  <flow id="JF31146" begin="480" fromJunction="J3" toJunction="J5" end="540" vehsPerHour="85.7992946475864" departLane="free"/>
  <flow id="JF31147" begin="480" fromJunction="J3" toJunction="J4" end="540" vehsPerHour="12.651220508928782" departLane="free"/>
  <flow id="JF31148" begin="480" fromJunction="J3" toJunction="J7" end="540" vehsPerHour="114.75439458789685" departLane="free"/>
  <flow id="JF31149" begin="480" fromJunction="J3" toJunction="J6" end="540" vehsPerHour="21.565226092026915" departLane="free"/>
  <flow id="JF31150" begin="480" fromJunction="J5" toJunction="J4" end="540" vehsPerHour="49.89091366021782" departLane="free"/>
  <flow id="JF31151" begin="480" fromJunction="J5" toJunction="J7" end="540" vehsPerHour="38.861068201178476" departLane="free"/>
  <flow id="JF31152" begin="480" fromJunction="J5" toJunction="J6" end="540" vehsPerHour="49.23449633305894" departLane="free"/>
  <flow id="JF31153" begin="480" fromJunction="J4" toJunction="J5" end="540" vehsPerHour="18.276589233846384" departLane="free"/>
  <flow id="JF31154" begin="480" fromJunction="J4" toJunction="J7" end="540" vehsPerHour="61.558436276491264" departLane="free"/>
  <flow id="JF31155" begin="480" fromJunction="J4" toJunction="J6" end="540" vehsPerHour="17.422271019268752" departLane="free"/>
  <flow id="JF31156" begin="480" fromJunction="J7" toJunction="J5" end="540" vehsPerHour="3.2474908483678413" departLane="free"/>
  <flow id="JF31157" begin="480" fromJunction="J7" toJunction="J4" end="540" vehsPerHour="8.021454287667" departLane="free"/>
  <flow id="JF31158" begin="480" fromJunction="J7" toJunction="J6" end="540" vehsPerHour="31.873189126158902" departLane="free"/>
  <flow id="JF31159" begin="480" fromJunction="J6" toJunction="J5" end="540" vehsPerHour="28.395988863168576" departLane="free"/>
  <flow id="JF31160" begin="480" fromJunction="J6" toJunction="J4" end="540" vehsPerHour="49.16244299828169" departLane="free"/>
  <flow id="JF31161" begin="480" fromJunction="J6" toJunction="J7" end="540" vehsPerHour="39.09854417563792" departLane="free"/>
  <flow id="JF31162" begin="480" fromJunction="J5" toJunction="J0" end="540" vehsPerHour="63.25833659014077" departLane="free"/>
  <flow id="JF31163" begin="480" fromJunction="J5" toJunction="J3" end="540" vehsPerHour="18.455066833265168" departLane="free"/>
  <flow id="JF31164" begin="480" fromJunction="J4" toJunction="J0" end="540" vehsPerHour="22.520951497935894" departLane="free"/>
  <flow id="JF31165" begin="480" fromJunction="J4" toJunction="J3" end="540" vehsPerHour="23.315512052356407" departLane="free"/>
  <flow id="JF31166" begin="480" fromJunction="J7" toJunction="J0" end="540" vehsPerHour="18.848020977884723" departLane="free"/>
  <flow id="JF31167" begin="480" fromJunction="J7" toJunction="J3" end="540" vehsPerHour="61.356858657919595" departLane="free"/>
  <flow id="JF31168" begin="480" fromJunction="J6" toJunction="J0" end="540" vehsPerHour="13.390062531512278" departLane="free"/>
  <flow id="JF31169" begin="480" fromJunction="J6" toJunction="J3" end="540" vehsPerHour="25.911641909126068" departLane="free"/>
  <flow id="JF31170" begin="540" fromJunction="J0" toJunction="J3" end="600" vehsPerHour="32.06171782907" departLane="free"/>